Version 4.1
SHEET 1 1356 680
WIRE 960 -32 960 -80
WIRE 672 16 608 16
WIRE 448 96 416 96
WIRE 560 96 528 96
WIRE 960 96 960 48
WIRE 416 128 416 96
WIRE 960 224 960 176
WIRE 448 352 416 352
WIRE 560 352 528 352
WIRE 960 352 960 304
WIRE 416 384 416 352
WIRE 608 496 608 368
WIRE 960 496 960 432
WIRE 960 496 608 496
FLAG 960 -80 Vout
IOPIN 960 -80 Out
FLAG 416 128 0
FLAG 416 384 0
SYMBOL voltage 960 -48 R0
SYMATTR InstName V1
SYMBOL voltage 960 80 R0
SYMATTR InstName V2
SYMBOL voltage 960 208 R0
SYMATTR InstName V3
SYMBOL voltage 960 336 R0
SYMATTR InstName V4
SYMBOL nmos 560 16 R0
SYMATTR InstName M1
SYMBOL nmos 560 272 R0
SYMATTR InstName M2
SYMBOL voltage 544 96 R90
WINDOW 0 -32 56 VBottom 2
WINDOW 3 32 56 VTop 2
SYMATTR InstName V5
SYMATTR Value {charge}
SYMBOL voltage 544 352 R90
WINDOW 0 -32 56 VBottom 2
WINDOW 3 32 56 VTop 2
SYMATTR InstName V6
SYMATTR Value {discharge}
TEXT 1112 392 Left 2 !.include nat_semi.lib
TEXT 1104 424 Left 2 !.include tex_inst.lib
