* Library of ON Semiconductor Diode Models

* $Revision:   1.0  $
* $Author:   HIRASUNA  $
* $Date:   20 Jul 2001 18:37:58  $

*---------------------------------------------------------------------------
*ON Semiconductor reserves the right to make changes without further
*notice to any products herein to improve reliability, function or
*design.  ON Semiconductor does not assume any liability arising out of the
*application or use of any product or circuit described herein;
*neither does it convey any license under its patent rights nor the
*rights of others.  ON Semiconductor products are not authorized for use as
*components in life support devices or systems intended for
*surgical implant into the body or intended to support or sustain
*life.  Buyer agrees to notify ON Semiconductor of any such intended end
*use whereupon ON Semiconductor shall determine availability and suitability
*or its product or products for the use intended.  ON Semiconductor is a
*registered trademark of ON Semiconductor, Inc.  ON Semiconductor, Inc. is
* an Equal Employment Opportunity/Affirmative Action Employer.
****************************************************
.SUBCKT 1_5ke56/ON 7 1
**************************************
*      Model Generated by MODPEX     *
*Copyright(c) Symmetry Design Systems*
*         All Rights Reserved        *
*    UNPUBLISHED LICENSED SOFTWARE   *
*   Contains Proprietary Information *
*      Which is The Property of      *
*     SYMMETRY OR ITS LICENSORS      *
*Commercial Use or Resale Restricted *
*   by Symmetry License Agreement    *
**************************************
* Model generated on Apr  3, 98
* MODEL FORMAT: PSPICE
*     anode cathode
*node: 7      1
*    Forward Section
D1 2 1 MDD1
.MODEL MDD1 D IS=1.95968e-08 N=1 XTI=1 RS=0.5 T_ABS=25
+ CJO=1e-11 TT=1e-08
*    Leakage Current
R 1 2 MDR 9.7551e+06
.MODEL MDR RES (TC1=0 TC2=0)
*    Breakdown
RZ 2 3 1.07038 
D3 4 3 MDD3
.MODEL MDD3 D T_ABS=25 IS=2.5e-15 N=0.5 
EV1 1 4 6 8 1
IBV 0 6 0.001
RBV 6 0 MDRBV 56000
.MODEL MDRBV RES (TC1=0.001)
D4 8 0 MDD3
L 7 2 1e-15
IT 0 8 0.001
.ENDS 
*$
.SUBCKT 1_5smc12at3/ON 7 1
**************************************
*      Model Generated by MODPEX     *
*Copyright(c) Symmetry Design Systems*
*         All Rights Reserved        *
*    UNPUBLISHED LICENSED SOFTWARE   *
*   Contains Proprietary Information *
*      Which is The Property of      *
*     SYMMETRY OR ITS LICENSORS      *
*Commercial Use or Resale Restricted *
*   by Symmetry License Agreement    *
**************************************
* Model generated on Apr  3, 98
* MODEL FORMAT: PSPICE
*     anode cathode
*node: 7      1
*    Forward Section
D1 2 1 MDD1
.MODEL MDD1 D IS=1.95968e-08 N=1 XTI=1 RS=0.5 T_ABS=25
+ CJO=1e-11 TT=1e-08
*    Leakage Current
R 1 2 MDR 2.08163e+06
.MODEL MDR RES (TC1=0 TC2=0)
*    Breakdown
RZ 2 3 0.0505852 
D3 4 3 MDD3
.MODEL MDD3 D T_ABS=25 IS=2.5e-15 N=0.5 
EV1 1 4 6 8 1
IBV 0 6 0.001
RBV 6 0 MDRBV 12000
.MODEL MDRBV RES (TC1=0.00072)
D4 8 0 MDD3
L 7 2 1e-15
IT 0 8 0.001
.ENDS 
*$
.SUBCKT 1_5smc43at3/ON 7 1
**************************************
*      Model Generated by MODPEX     *
*Copyright(c) Symmetry Design Systems*
*         All Rights Reserved        *
*    UNPUBLISHED LICENSED SOFTWARE   *
*   Contains Proprietary Information *
*      Which is The Property of      *
*     SYMMETRY OR ITS LICENSORS      *
*Commercial Use or Resale Restricted *
*   by Symmetry License Agreement    *
**************************************
* Model generated on Apr 14, 98
* MODEL FORMAT: PSPICE
*     anode cathode
*node: 7      1
*    Forward Section
D1 2 1 MDD1
.MODEL MDD1 D IS=2.35973e-32 N=1 XTI=1 RS=0.01 T_ABS=25
+ CJO=1e-11 TT=1e-08
*    Leakage Current
R 1 2 MDR 7.5102e+06
.MODEL MDR RES (TC1=0 TC2=0)
*    Breakdown
RZ 2 3 0.639093 
D3 4 3 MDD3
.MODEL MDD3 D T_ABS=25 IS=2.5e-15 N=0.5 
EV1 1 4 6 8 1
IBV 0 6 0.001
RBV 6 0 MDRBV 43000
.MODEL MDRBV RES (TC1=0.00101)
D4 8 0 MDD3
L 7 2 1e-15
IT 0 8 0.001
.ENDS 
*$
.SUBCKT 1n4694/ON 2 1
**************************************
*      Model Generated by MODPEX     *
*Copyright(c) Symmetry Design Systems*
*         All Rights Reserved        *
*    UNPUBLISHED LICENSED SOFTWARE   *
*   Contains Proprietary Information *
*      Which is The Property of      *
*     SYMMETRY OR ITS LICENSORS      *
*Commercial Use or Resale Restricted *
*   by Symmetry License Agreement    *
**************************************
* Model generated on Mar 27, 98
* MODEL FORMAT: PSPICE
*     anode cathode
*node: 2      1
*    Forward Section
D1 2 1 MD1
.MODEL MD1 D IS=3.54071e-15 N=1.05719 XTI=1 RS=0.33 T_ABS=25
+ CJO=1e-10 TT=1e-08
*    Leakage Current
R 1 2 MDR 1.24e+07
.MODEL MDR RES (TC1=0 TC2=0)
*    Breakdown
RZ 2 3 1874.86
IZG 4 3 0.0348
R4 4 3 125000
D3 3 4 MD3
.MODEL MD3 D IS=2.5e-12 N=0.184879 XTI=0 EG=0.1 T_ABS=25
D2 5 4 MD2
.MODEL MD2 D IS=2.5e-12 N=1.20983 XTI=0 EG=0.1 T_ABS=25
EV1 1 5 6 0 1
IBV 0 6 0.001
RBV 6 0 MDRBV 7692.44
.MODEL MDRBV RES (TC1=0.000532991)
*-- SPICE3 DIODE MODEL DEFAULT PARAMETER
*  VALUES ARE ASSUMED
*IS=1E-14 RS=0 N=1 TT=0 CJO=0
*VJ=1 M=0.5 EG=1.11 XTI=3 FC=0.5
*KF=0 AF=1 BV=inf IBV=1e-3 TNOM=27
.ENDS 
*$
.SUBCKT 1n4698/ON 2 1
**************************************
*      Model Generated by MODPEX     *
*Copyright(c) Symmetry Design Systems*
*         All Rights Reserved        *
*    UNPUBLISHED LICENSED SOFTWARE   *
*   Contains Proprietary Information *
*      Which is The Property of      *
*     SYMMETRY OR ITS LICENSORS      *
*Commercial Use or Resale Restricted *
*   by Symmetry License Agreement    *
**************************************
* Model generated on Apr 16, 98
* MODEL FORMAT: PSPICE
*     anode cathode
*node: 2      1
*    Forward Section
D1 2 1 MD1
.MODEL MD1 D IS=3.54071e-15 N=1.05719 XTI=1 RS=0.62 T_ABS=25
+ CJO=1.2e-10 TT=1e-08
*    Leakage Current
R 1 2 MDR 3.36e+08
.MODEL MDR RES (TC1=0 TC2=0)
*    Breakdown
RZ 2 3 449.946
IZG 4 3 0.0228
R4 4 3 30000
D3 3 4 MD3
.MODEL MD3 D IS=2.5e-12 N=0.0474422 XTI=0 EG=0.1 T_ABS=25
D2 5 4 MD2
.MODEL MD2 D IS=2.5e-12 N=0.29036 XTI=0 EG=0.1 T_ABS=25
EV1 1 5 6 0 1
IBV 0 6 0.001
RBV 6 0 MDRBV 10879.5
.MODEL MDRBV RES (TC1=0.000707752)
*-- SPICE3 DIODE MODEL DEFAULT PARAMETER
*  VALUES ARE ASSUMED
*IS=1E-14 RS=0 N=1 TT=0 CJO=0
*VJ=1 M=0.5 EG=1.11 XTI=3 FC=0.5
*KF=0 AF=1 BV=inf IBV=1e-3 TNOM=27
.ENDS 
*$
.SUBCKT 1n5231/ON 2 1
**************************************
*      Model Generated by MODPEX     *
*Copyright(c) Symmetry Design Systems*
*         All Rights Reserved        *
*    UNPUBLISHED LICENSED SOFTWARE   *
*   Contains Proprietary Information *
*      Which is The Property of      *
*     SYMMETRY OR ITS LICENSORS      *
*Commercial Use or Resale Restricted *
*   by Symmetry License Agreement    *
**************************************
* Model generated on Apr 17, 98
* MODEL FORMAT: PSPICE
*     anode cathode
*node: 2      1
*    Forward Section
D1 2 1 MD1
.MODEL MD1 D IS=3.54071e-15 N=1.05719 XTI=1 RS=0.62 T_ABS=25
+ CJO=1.7e-10 TT=1e-08
*    Leakage Current
R 1 2 MDR 800000
.MODEL MDR RES (TC1=0 TC2=0)
*    Breakdown
RZ 2 3 1.59964
IZG 4 3 0.1176
R4 4 3 100
D3 3 4 MD3
.MODEL MD3 D IS=2.5e-12 N=0.173176 XTI=0 EG=0.1 T_ABS=25
D2 5 4 MD2
.MODEL MD2 D IS=2.5e-12 N=0.274509 XTI=0 EG=0.1 T_ABS=25
EV1 1 5 6 0 1
IBV 0 6 0.001
RBV 6 0 MDRBV 5015.41
.MODEL MDRBV RES (TC1=0.000284722)
*-- SPICE3 DIODE MODEL DEFAULT PARAMETER
*  VALUES ARE ASSUMED
*IS=1E-14 RS=0 N=1 TT=0 CJO=0
*VJ=1 M=0.5 EG=1.11 XTI=3 FC=0.5
*KF=0 AF=1 BV=inf IBV=1e-3 TNOM=27
.ENDS 
*$
.SUBCKT 1n6280/ON 7 1
**************************************
*      Model Generated by MODPEX     *
*Copyright(c) Symmetry Design Systems*
*         All Rights Reserved        *
*    UNPUBLISHED LICENSED SOFTWARE   *
*   Contains Proprietary Information *
*      Which is The Property of      *
*     SYMMETRY OR ITS LICENSORS      *
*Commercial Use or Resale Restricted *
*   by Symmetry License Agreement    *
**************************************
* Model generated on Apr 17, 98
* MODEL FORMAT: PSPICE
*     anode cathode
*node: 7      1
*    Forward Section
D1 2 1 MDD1
.MODEL MDD1 D IS=1.95968e-08 N=1 XTI=1 RS=0.5 T_ABS=25
+ CJO=1e-11 TT=1e-08
*    Leakage Current
R 1 2 MDR 4.14141e+06
.MODEL MDR RES (TC1=0 TC2=0)
*    Breakdown
RZ 2 3 0.201369 
D3 4 3 MDD3
.MODEL MDD3 D T_ABS=25 IS=2.5e-15 N=0.5 
EV1 1 4 6 8 1
IBV 0 6 0.001
RBV 6 0 MDRBV 24000
.MODEL MDRBV RES (TC1=0.00085)
D4 8 0 MDD3
L 7 2 1e-15
IT 0 8 0.001
.ENDS 
*$
.SUBCKT 1n752/ON 2 1
**************************************
*      Model Generated by MODPEX     *
*Copyright(c) Symmetry Design Systems*
*         All Rights Reserved        *
*    UNPUBLISHED LICENSED SOFTWARE   *
*   Contains Proprietary Information *
*      Which is The Property of      *
*     SYMMETRY OR ITS LICENSORS      *
*Commercial Use or Resale Restricted *
*   by Symmetry License Agreement    *
**************************************
* Model generated on Apr 17, 98
* MODEL FORMAT: PSPICE
*     anode cathode
*node: 2      1
*    Forward Section
D1 2 1 MD1
.MODEL MD1 D IS=3.54071e-15 N=1.05719 XTI=1 RS=0.62 T_ABS=25
+ CJO=1.6e-10 TT=1e-08
*    Leakage Current
R 1 2 MDR 2e+06
.MODEL MDR RES (TC1=0 TC2=0)
*    Breakdown
RZ 2 3 2.49756
IZG 4 3 0.0684
R4 4 3 150
D3 3 4 MD3
.MODEL MD3 D IS=2.5e-12 N=0.299951 XTI=0 EG=0.1 T_ABS=25
D2 5 4 MD2
.MODEL MD2 D IS=2.5e-12 N=0.265087 XTI=0 EG=0.1 T_ABS=25
EV1 1 5 6 0 1
IBV 0 6 0.001
RBV 6 0 MDRBV 5577.43
.MODEL MDRBV RES (TC1=0.000331335)
*-- SPICE3 DIODE MODEL DEFAULT PARAMETER
*  VALUES ARE ASSUMED
*IS=1E-14 RS=0 N=1 TT=0 CJO=0
*VJ=1 M=0.5 EG=1.11 XTI=3 FC=0.5
*KF=0 AF=1 BV=inf IBV=1e-3 TNOM=27
.ENDS 
*$
.SUBCKT 1smb5935bt3/ON 2 1
**************************************
*      Model Generated by MODPEX     *
*Copyright(c) Symmetry Design Systems*
*         All Rights Reserved        *
*    UNPUBLISHED LICENSED SOFTWARE   *
*   Contains Proprietary Information *
*      Which is The Property of      *
*     SYMMETRY OR ITS LICENSORS      *
*Commercial Use or Resale Restricted *
*   by Symmetry License Agreement    *
**************************************
* Model generated on Aug  6, 98
* MODEL FORMAT: PSPICE
*     anode cathode
*node: 2      1
*    Forward Section
D1 2 1 MD1
.MODEL MD1 D IS=1.11295e-10 N=1.54084 XTI=1 RS=0.176 T_ABS=25
+ CJO=1.766e-10 TT=1e-08
*    Leakage Current
R 1 2 MDR 4.12e+07
.MODEL MDR RES (TC1=0 TC2=0)
*    Breakdown
RZ 2 3 35.3759
IZG 4 3 0.0576
R4 4 3 1900
D3 3 4 MD3
.MODEL MD3 D IS=2.5e-12 N=0.964855 XTI=0 EG=0.1 T_ABS=25
D2 5 4 MD2
.MODEL MD2 D IS=2.5e-12 N=1.1052 XTI=0 EG=0.1 T_ABS=25
EV1 1 5 6 0 1
IBV 0 6 0.001
RBV 6 0 MDRBV 26455.5
.MODEL MDRBV RES (TC1=0.000918524)
*-- SPICE3 DIODE MODEL DEFAULT PARAMETER
*  VALUES ARE ASSUMED
*IS=1E-14 RS=0 N=1 TT=0 CJO=0
*VJ=1 M=0.5 EG=1.11 XTI=3 FC=0.5
*KF=0 AF=1 BV=inf IBV=1e-3 TNOM=27
.ENDS 
*$
.SUBCKT 1smc28at3/ON 7 1
**************************************
*      Model Generated by MODPEX     *
*Copyright(c) Symmetry Design Systems*
*         All Rights Reserved        *
*    UNPUBLISHED LICENSED SOFTWARE   *
*   Contains Proprietary Information *
*      Which is The Property of      *
*     SYMMETRY OR ITS LICENSORS      *
*Commercial Use or Resale Restricted *
*   by Symmetry License Agreement    *
**************************************
* Model generated on Apr  3, 98
* MODEL FORMAT: PSPICE
*     anode cathode
*node: 7      1
*    Forward Section
D1 2 1 MDD1
.MODEL MDD1 D IS=1.95968e-08 N=1 XTI=1 RS=0.5 T_ABS=25
+ CJO=1e-11 TT=1e-08
*    Leakage Current
R 1 2 MDR 5.71429e+06
.MODEL MDR RES (TC1=0 TC2=0)
*    Breakdown
RZ 2 3 0.383807 
D3 4 3 MDD3
.MODEL MDD3 D T_ABS=25 IS=2.5e-15 N=0.5 
EV1 1 4 6 8 1
IBV 0 6 0.001
RBV 6 0 MDRBV 32600
.MODEL MDRBV RES (TC1=0.0009)
D4 8 0 MDD3
L 7 2 1e-15
IT 0 8 0.001
.ENDS 
*$
.SUBCKT bzx84c6v8/ON 2 1
**************************************
*      Model Generated by MODPEX     *
*Copyright(c) Symmetry Design Systems*
*         All Rights Reserved        *
*    UNPUBLISHED LICENSED SOFTWARE   *
*   Contains Proprietary Information *
*      Which is The Property of      *
*     SYMMETRY OR ITS LICENSORS      *
*Commercial Use or Resale Restricted *
*   by Symmetry License Agreement    *
**************************************
* Model generated on Apr 23, 98
* MODEL FORMAT: PSPICE
*     anode cathode
*node: 2      1
*    Forward Section
D1 2 1 MD1
.MODEL MD1 D IS=1.53197e-14 N=1.05719 XTI=1 RS=1.14 T_ABS=25
+ CJO=1.1e-10 TT=1e-08
*    Leakage Current
R 1 2 MDR 4e+06
.MODEL MDR RES (TC1=0 TC2=0)
*    Breakdown
RZ 2 3 2.18129
IZG 4 3 0.036
R4 4 3 225
D3 3 4 MD3
.MODEL MD3 D IS=2.5e-12 N=0.22602 XTI=0 EG=0.1 T_ABS=25
D2 5 4 MD2
.MODEL MD2 D IS=2.5e-12 N=0.412385 XTI=0 EG=0.1 T_ABS=25
EV1 1 5 6 0 1
IBV 0 6 0.001
RBV 6 0 MDRBV 6696.65
.MODEL MDRBV RES (TC1=0.000507716)
*-- SPICE3 DIODE MODEL DEFAULT PARAMETER
*  VALUES ARE ASSUMED
*IS=1E-14 RS=0 N=1 TT=0 CJO=0
*VJ=1 M=0.5 EG=1.11 XTI=3 FC=0.5
*KF=0 AF=1 BV=inf IBV=1e-3 TNOM=27
.ENDS 
*$
.SUBCKT p6smb13at3/ON 7 1
**************************************
*      Model Generated by MODPEX     *
*Copyright(c) Symmetry Design Systems*
*         All Rights Reserved        *
*    UNPUBLISHED LICENSED SOFTWARE   *
*   Contains Proprietary Information *
*      Which is The Property of      *
*     SYMMETRY OR ITS LICENSORS      *
*Commercial Use or Resale Restricted *
*   by Symmetry License Agreement    *
**************************************
* Model generated on Apr 14, 98
* MODEL FORMAT: PSPICE
*     anode cathode
*node: 7      1
*    Forward Section
D1 2 1 MDD1
.MODEL MDD1 D IS=1.95968e-07 N=1 XTI=1 RS=0.05 T_ABS=25
+ CJO=1e-11 TT=1e-08
*    Leakage Current
R 1 2 MDR 2.26531e+06
.MODEL MDR RES (TC1=0 TC2=0)
*    Breakdown
RZ 2 3 0.153504 
D3 4 3 MDD3
.MODEL MDD3 D T_ABS=25 IS=2.5e-15 N=0.5 
EV1 1 4 6 8 1
IBV 0 6 0.001
RBV 6 0 MDRBV 13000
.MODEL MDRBV RES (TC1=0.00081)
D4 8 0 MDD3
L 7 2 1e-15
IT 0 8 0.001
.ENDS 
*$
.SUBCKT p6smb18at3/ON 7 1
**************************************
*      Model Generated by MODPEX     *
*Copyright(c) Symmetry Design Systems*
*         All Rights Reserved        *
*    UNPUBLISHED LICENSED SOFTWARE   *
*   Contains Proprietary Information *
*      Which is The Property of      *
*     SYMMETRY OR ITS LICENSORS      *
*Commercial Use or Resale Restricted *
*   by Symmetry License Agreement    *
**************************************
* Model generated on Apr 14, 98
* MODEL FORMAT: PSPICE
*     anode cathode
*node: 7      1
*    Forward Section
D1 2 1 MDD1
.MODEL MDD1 D IS=1.95968e-07 N=1 XTI=1 RS=0.05 T_ABS=25
+ CJO=1e-11 TT=1e-08
*    Leakage Current
R 1 2 MDR 3.12245e+06
.MODEL MDR RES (TC1=0 TC2=0)
*    Breakdown
RZ 2 3 0.294573 
D3 4 3 MDD3
.MODEL MDD3 D T_ABS=25 IS=2.5e-15 N=0.5 
EV1 1 4 6 8 1
IBV 0 6 0.001
RBV 6 0 MDRBV 18000
.MODEL MDRBV RES (TC1=0.00088)
D4 8 0 MDD3
L 7 2 1e-15
IT 0 8 0.001
.ENDS 
*$
.SUBCKT p6smb20at3/ON 7 1
**************************************
*      Model Generated by MODPEX     *
*Copyright(c) Symmetry Design Systems*
*         All Rights Reserved        *
*    UNPUBLISHED LICENSED SOFTWARE   *
*   Contains Proprietary Information *
*      Which is The Property of      *
*     SYMMETRY OR ITS LICENSORS      *
*Commercial Use or Resale Restricted *
*   by Symmetry License Agreement    *
**************************************
* Model generated on Mar 25, 98
* MODEL FORMAT: PSPICE
*     anode cathode
*node: 7      1
*    Forward Section
D1 2 1 MDD1
.MODEL MDD1 D IS=1.95968e-08 N=1 XTI=1 RS=0.5 T_ABS=25
+ CJO=1e-11 TT=1e-08
*    Leakage Current
R 1 2 MDR 3.4898e+06
.MODEL MDR RES (TC1=0 TC2=0)
*    Breakdown
RZ 2 3 0.327213 
D3 4 3 MDD3
.MODEL MDD3 D T_ABS=25 IS=2.5e-15 N=0.5 
EV1 1 4 6 8 1
IBV 0 6 0.001
RBV 6 0 MDRBV 20000
.MODEL MDRBV RES (TC1=0.000837)
D4 8 0 MDD3
L 7 2 1e-15
IT 0 8 0.001
.ENDS 
*$
.SUBCKT p6smb6_8at3/ON 7 1
**************************************
*      Model Generated by MODPEX     *
*Copyright(c) Symmetry Design Systems*
*         All Rights Reserved        *
*    UNPUBLISHED LICENSED SOFTWARE   *
*   Contains Proprietary Information *
*      Which is The Property of      *
*     SYMMETRY OR ITS LICENSORS      *
*Commercial Use or Resale Restricted *
*   by Symmetry License Agreement    *
**************************************
* Model generated on Mar 25, 98
* MODEL FORMAT: PSPICE
*     anode cathode
*node: 7      1
*    Forward Section
D1 2 1 MDD1
.MODEL MDD1 D IS=1.95968e-08 N=1 XTI=1 RS=0.5 T_ABS=25
+ CJO=1e-11 TT=1e-08
*    Leakage Current
R 1 2 MDR 5918.37
.MODEL MDR RES (TC1=0 TC2=0)
*    Breakdown
RZ 2 3 0.0629528 
D3 4 3 MDD3
.MODEL MDD3 D T_ABS=25 IS=2.5e-15 N=0.5 
EV1 1 4 6 8 1
IBV 0 6 0.001
RBV 6 0 MDRBV 6800
.MODEL MDRBV RES (TC1=0.0053)
D4 8 0 MDD3
L 7 2 1e-15
IT 0 8 0.01
.ENDS 
*$
**************************************
*      Model Generated by MODPEX     *
*Copyright(c) Symmetry Design Systems*
*         All Rights Reserved        *
*    UNPUBLISHED LICENSED SOFTWARE   *
*   Contains Proprietary Information *
*      Which is The Property of      *
*     SYMMETRY OR ITS LICENSORS      *
*Commercial Use or Resale Restricted *
*   by Symmetry License Agreement    *
**************************************
* Model generated on Aug 21, 00
* MODEL FORMAT: PSpice
.MODEL D1n5817/ON d
+IS=2.93092e-05 RS=0.0524736 N=1.33711 EG=0.1
+XTI=0.325839 BV=20 IBV=0.001 CJO=2.01549e-10
+VJ=8.0542 M=0.9 FC=0.5 TT=1.47806e-08
+KF=0 AF=1
*$
**************************************
*      Model Generated by MODPEX     *
*Copyright(c) Symmetry Design Systems*
*         All Rights Reserved        *
*    UNPUBLISHED LICENSED SOFTWARE   *
*   Contains Proprietary Information *
*      Which is The Property of      *
*     SYMMETRY OR ITS LICENSORS      *
*Commercial Use or Resale Restricted *
*   by Symmetry License Agreement    *
**************************************
* Model generated on Aug 21, 00
* MODEL FORMAT: PSpice
.MODEL D1n5818/ON d
+IS=4.4214e-05 RS=0.0531374 N=1.37435 EG=0.6
+XTI=0.5 BV=30 IBV=0.001 CJO=1.98376e-10
+VJ=1.5 M=0.54046 FC=0.5 TT=2.6273e-08
+KF=0 AF=1
*$
**************************************
*      Model Generated by MODPEX     *
*Copyright(c) Symmetry Design Systems*
*         All Rights Reserved        *
*    UNPUBLISHED LICENSED SOFTWARE   *
*   Contains Proprietary Information *
*      Which is The Property of      *
*     SYMMETRY OR ITS LICENSORS      *
*Commercial Use or Resale Restricted *
*   by Symmetry License Agreement    *
**************************************
* Model generated on Aug 21, 00
* MODEL FORMAT: PSpice
.MODEL D1n5819/ON d
+IS=1.19279e-05 RS=0.0625421 N=1.16517 EG=1.3
+XTI=3.22098 BV=40 IBV=0.001 CJO=1.50114e-10
+VJ=1.5 M=0.590203 FC=0.5 TT=2.6273e-08
+KF=0 AF=1
*$
.SUBCKT bas16tt1/ON 11 16
**************************************
*      Model Generated by MODPEX     *
*Copyright(c) Symmetry Design Systems*
*         All Rights Reserved        *
*    UNPUBLISHED LICENSED SOFTWARE   *
*   Contains Proprietary Information *
*      Which is The Property of      *
*     SYMMETRY OR ITS LICENSORS      *
*Commercial Use or Resale Restricted *
*   by Symmetry License Agreement    *
**************************************
* Model generated on Apr 12, 00
* MODEL FORMAT: PSpice
rs 11 12 1.14282
vdsense 13 1 0
e9 12 13 value={1.5635*i(vdsense)/(1e+10*v(3)+0.0015635)}
r9 12 13 1e12
g1 1 16 value={v(7)+v(8)}
rdc2 2 0 1e12
e2 22 0 1 16 0.5
vqe 22 23 0
dqe 23 0 dqemod
.model dqemod d (is=9.33951e-09 n=0.978446 eg=0.645653 xti=2.95141)
h2 2 0 vqe 7.95657e-08
c3 3 0 100u
rdc3 3 0 1e12
d3 0 3 dqmod
.model dqmod d
vsense 4 5 0
f3 3 0 vsense 1
rdc6 6 0 1e12
e6 6 0 value={1.77583e+08*v(3)}
e4 4 0 value={v(6)-1.65014e+08*v(2)}
r5 5 0 10K
rdc7 7 0 1e12
e7 7 0 value={1.65014e+08*(v(2)-v(3))}
rdc8 8 0 1e12
e8 88 0 1 16 1
vie 88 89 0
die 89 0 diomod
.model diomod d (is=9.99915e-21)
h8 8 0 vie 1
dcj 12 16 dmod
.model dmod d(is=1e-25 n=10
+ cjo=6.10337e-13 vj=0.306049 m=0.0435137)
.ends 
*$
.SUBCKT bas21slt1/ON 11 16
**************************************
*      Model Generated by MODPEX     *
*Copyright(c) Symmetry Design Systems*
*         All Rights Reserved        *
*    UNPUBLISHED LICENSED SOFTWARE   *
*   Contains Proprietary Information *
*      Which is The Property of      *
*     SYMMETRY OR ITS LICENSORS      *
*Commercial Use or Resale Restricted *
*   by Symmetry License Agreement    *
**************************************
* Model generated on May  3, 01
* MODEL FORMAT: PSpice
rs 11 12 1.21637
vdsense 13 1 0
e9 12 13 value={12.7486*i(vdsense)/(1e+10*v(3)+0.0127486)}
r9 12 13 1e12
g1 1 16 value={v(7)+v(8)}
rdc2 2 0 1e12
e2 22 0 1 16 0.5
vqe 22 23 0
dqe 23 0 dqemod
.model dqemod d (is=9.40132e-07 n=2.69102 eg=1.31984 xti=1.223)
h2 2 0 vqe 4.63754e-07
c3 3 0 100u
rdc3 3 0 1e12
d3 0 3 dqmod
.model dqmod d
vsense 4 5 0
f3 3 0 vsense 1
rdc6 6 0 1e12
e6 6 0 value={2.23938e+07*v(3)}
e4 4 0 value={v(6)-2.02375e+07*v(2)}
r5 5 0 10K
rdc7 7 0 1e12
e7 7 0 value={2.02375e+07*(v(2)-v(3))}
rdc8 8 0 1e12
e8 88 0 1 16 1
vie 88 89 0
die 89 0 diomod
.model diomod d (is=2.30894e-30)
h8 8 0 vie 1
dcj 12 16 dmod
.model dmod d(is=1e-25 n=10
+ cjo=8.18655e-13 vj=0.247904 m=0.102046)
.ends 
*$
.SUBCKT bav70tt1/ON 11 16
**************************************
*      Model Generated by MODPEX     *
*Copyright(c) Symmetry Design Systems*
*         All Rights Reserved        *
*    UNPUBLISHED LICENSED SOFTWARE   *
*   Contains Proprietary Information *
*      Which is The Property of      *
*     SYMMETRY OR ITS LICENSORS      *
*Commercial Use or Resale Restricted *
*   by Symmetry License Agreement    *
**************************************
* Model generated on Apr 13, 00
* MODEL FORMAT: PSpice
rs 11 12 1.1309
vdsense 13 1 0
e9 12 13 value={2.03875*i(vdsense)/(1e+10*v(3)+0.00203875)}
r9 12 13 1e12
g1 1 16 value={v(7)+v(8)}
rdc2 2 0 1e12
e2 22 0 1 16 0.5
vqe 22 23 0
dqe 23 0 dqemod
.model dqemod d (is=1.29159e-08 n=0.970274 eg=0.678057 xti=2.98868)
h2 2 0 vqe 2.27054e-08
c3 3 0 100u
rdc3 3 0 1e12
d3 0 3 dqmod
.model dqmod d
vsense 4 5 0
f3 3 0 vsense 1
rdc6 6 0 1e12
e6 6 0 value={1.7059e+08*v(3)}
e4 4 0 value={v(6)-1.26548e+08*v(2)}
r5 5 0 10K
rdc7 7 0 1e12
e7 7 0 value={1.26548e+08*(v(2)-v(3))}
rdc8 8 0 1e12
e8 88 0 1 16 1
vie 88 89 0
die 89 0 diomod
.model diomod d (is=1.00232e-20)
h8 8 0 vie 1
dcj 12 16 dmod
.model dmod d(is=1e-25 n=10
+ cjo=9.56906e-13 vj=0.425014 m=0.109792)
.ends 
*$
.SUBCKT baw56tt1/ON 11 16
**************************************
*      Model Generated by MODPEX     *
*Copyright(c) Symmetry Design Systems*
*         All Rights Reserved        *
*    UNPUBLISHED LICENSED SOFTWARE   *
*   Contains Proprietary Information *
*      Which is The Property of      *
*     SYMMETRY OR ITS LICENSORS      *
*Commercial Use or Resale Restricted *
*   by Symmetry License Agreement    *
**************************************
* Model generated on Apr 13, 00
* MODEL FORMAT: PSpice
rs 11 12 1.07829
vdsense 13 1 0
e9 12 13 value={1.83849*i(vdsense)/(1e+10*v(3)+0.00183849)}
r9 12 13 1e12
g1 1 16 value={v(7)+v(8)}
rdc2 2 0 1e12
e2 22 0 1 16 0.5
vqe 22 23 0
dqe 23 0 dqemod
.model dqemod d (is=1.28779e-08 n=0.978944 eg=0.928315 xti=2.99496)
h2 2 0 vqe 3.13112e-08
c3 3 0 100u
rdc3 3 0 1e12
d3 0 3 dqmod
.model dqmod d
vsense 4 5 0
f3 3 0 vsense 1
rdc6 6 0 1e12
e6 6 0 value={1.7227e+08*v(3)}
e4 4 0 value={v(6)-1.40333e+08*v(2)}
r5 5 0 10K
rdc7 7 0 1e12
e7 7 0 value={1.40333e+08*(v(2)-v(3))}
rdc8 8 0 1e12
e8 88 0 1 16 1
vie 88 89 0
die 89 0 diomod
.model diomod d (is=9.9922e-21)
h8 8 0 vie 1
dcj 12 16 dmod
.model dmod d(is=1e-25 n=10
+ cjo=1.86751e-12 vj=0.239325 m=0.25428)
.ends 
*$
.SUBCKT bzx84c5v1lt3/ON 2 1
**************************************
*      Model Generated by MODPEX     *
*Copyright(c) Symmetry Design Systems*
*         All Rights Reserved        *
*    UNPUBLISHED LICENSED SOFTWARE   *
*   Contains Proprietary Information *
*      Which is The Property of      *
*     SYMMETRY OR ITS LICENSORS      *
*Commercial Use or Resale Restricted *
*   by Symmetry License Agreement    *
**************************************
* Model generated on Sep  3, 99
* MODEL FORMAT: PSPICE
*     anode cathode
*node: 2      1
*    Forward Section
D1 2 1 MD1
.MODEL MD1 D IS=1.53197e-14 N=1.05719 XTI=1 RS=80 T_ABS=25
+ CJO=1.8e-10 TT=1e-08
*    Leakage Current
R 1 2 MDR 2e+06
.MODEL MDR RES (TC1=0 TC2=0)
*    Breakdown
RZ 2 3 2.86327
IZG 4 3 0.036
R4 4 3 225
D3 3 4 MD3
.MODEL MD3 D IS=2.5e-12 N=0.159544 XTI=0 EG=0.1 T_ABS=25
D2 5 4 MD2
.MODEL MD2 D IS=2.5e-12 N=0.291095 XTI=0 EG=0.1 T_ABS=25
EV1 1 5 6 0 1
IBV 0 6 0.001
RBV 6 0 MDRBV 5020.43
.MODEL MDRBV RES (TC1=0.00040634)
*-- SPICE3 DIODE MODEL DEFAULT PARAMETER
*  VALUES ARE ASSUMED
*IS=1E-14 RS=0 N=1 TT=0 CJO=0
*VJ=1 M=0.5 EG=1.11 XTI=3 FC=0.5
*KF=0 AF=1 BV=inf IBV=1e-3 TNOM=27
.ENDS 
*$
.SUBCKT da121tt1/ON 11 16
**************************************
*      Model Generated by MODPEX     *
*Copyright(c) Symmetry Design Systems*
*         All Rights Reserved        *
*    UNPUBLISHED LICENSED SOFTWARE   *
*   Contains Proprietary Information *
*      Which is The Property of      *
*     SYMMETRY OR ITS LICENSORS      *
*Commercial Use or Resale Restricted *
*   by Symmetry License Agreement    *
**************************************
* Model generated on Apr 12, 00
* MODEL FORMAT: PSpice
rs 11 12 1.10943
vdsense 13 1 0
e9 12 13 value={1.5635*i(vdsense)/(1e+10*v(3)+0.0015635)}
r9 12 13 1e12
g1 1 16 value={v(7)+v(8)}
rdc2 2 0 1e12
e2 22 0 1 16 0.5
vqe 22 23 0
dqe 23 0 dqemod
.model dqemod d (is=9.38741e-09 n=0.975802 eg=0.59995 xti=2.96365)
h2 2 0 vqe 7.95657e-08
c3 3 0 100u
rdc3 3 0 1e12
d3 0 3 dqmod
.model dqmod d
vsense 4 5 0
f3 3 0 vsense 1
rdc6 6 0 1e12
e6 6 0 value={1.77583e+08*v(3)}
e4 4 0 value={v(6)-1.65014e+08*v(2)}
r5 5 0 10K
rdc7 7 0 1e12
e7 7 0 value={1.65014e+08*(v(2)-v(3))}
rdc8 8 0 1e12
e8 88 0 1 16 1
vie 88 89 0
die 89 0 diomod
.model diomod d (is=9.99937e-21)
h8 8 0 vie 1
dcj 12 16 dmod
.model dmod d(is=1e-25 n=10
+ cjo=6.14139e-13 vj=0.266157 m=0.0437778)
.ends 
*$
**************************************
*      Model Generated by MODPEX     *
*Copyright(c) Symmetry Design Systems*
*         All Rights Reserved        *
*    UNPUBLISHED LICENSED SOFTWARE   *
*   Contains Proprietary Information *
*      Which is The Property of      *
*     SYMMETRY OR ITS LICENSORS      *
*Commercial Use or Resale Restricted *
*   by Symmetry License Agreement    *
**************************************
* Model generated on Apr 27, 99
* MODEL FORMAT: PSpice
.MODEL Dhdiode d
+IS=1.41328e-14 RS=0.482713 N=0.7926 EG=0.967881
+XTI=2.99634 BV=6 IBV=0.0001 CJO=3.06346e-11
+VJ=1.5 M=0.739236 FC=0.5 TT=1e-09
+KF=0 AF=1
*$
**************************************
*      Model Generated by MODPEX     *
*Copyright(c) Symmetry Design Systems*
*         All Rights Reserved        *
*    UNPUBLISHED LICENSED SOFTWARE   *
*   Contains Proprietary Information *
*      Which is The Property of      *
*     SYMMETRY OR ITS LICENSORS      *
*Commercial Use or Resale Restricted *
*   by Symmetry License Agreement    *
**************************************
* Model generated on Jan 24, 01
* MODEL FORMAT: PSpice
.MODEL Dmbr130/ON d
+IS=1e-15 RS=0.165385 N=0.379314 EG=0.6
+XTI=2.84421 BV=30 IBV=0.0001 CJO=2.2562e-10
+VJ=0.4 M=0.513055 FC=0.5 TT=1e-09
+KF=0 AF=1
*$
**************************************
*      Model Generated by MODPEX     *
*Copyright(c) Symmetry Design Systems*
*         All Rights Reserved        *
*    UNPUBLISHED LICENSED SOFTWARE   *
*   Contains Proprietary Information *
*      Which is The Property of      *
*     SYMMETRY OR ITS LICENSORS      *
*Commercial Use or Resale Restricted *
*   by Symmetry License Agreement    *
**************************************
* Model generated on Nov 15, 00
* MODEL FORMAT: PSpice
.MODEL Dmbr1545ctp/ON d
+IS=1.26233e-05 RS=0.0120377 N=1.41155 EG=0.625999
+XTI=4 BV=1000 IBV=0.0001 CJO=8.38737e-10
+VJ=0.588614 M=0.552069 FC=0.5 TT=1e-09
+KF=0 AF=1
*$
**************************************
*      Model Generated by MODPEX     *
*Copyright(c) Symmetry Design Systems*
*         All Rights Reserved        *
*    UNPUBLISHED LICENSED SOFTWARE   *
*   Contains Proprietary Information *
*      Which is The Property of      *
*     SYMMETRY OR ITS LICENSORS      *
*Commercial Use or Resale Restricted *
*   by Symmetry License Agreement    *
**************************************
* Model generated on Oct 30, 00
* MODEL FORMAT: PSpice
.MODEL Dmbr16100ct/ON d
+IS=0.000112988 RS=0.00701206 N=2.11553 EG=1.24176
+XTI=2.99013 BV=1000 IBV=0.0001 CJO=2.01102e-09
+VJ=0.4 M=0.567567 FC=0.5 TT=1e-09
+KF=0 AF=1
*$
**************************************
*      Model Generated by MODPEX     *
*Copyright(c) Symmetry Design Systems*
*         All Rights Reserved        *
*    UNPUBLISHED LICENSED SOFTWARE   *
*   Contains Proprietary Information *
*      Which is The Property of      *
*     SYMMETRY OR ITS LICENSORS      *
*Commercial Use or Resale Restricted *
*   by Symmetry License Agreement    *
**************************************
* Model generated on Nov 17, 00
* MODEL FORMAT: PSpice
.MODEL Dmbr20100ctp/ON d
+IS=0.000128453 RS=0.00588614 N=2.53364 EG=0.960818
+XTI=2.92145 BV=100 IBV=0.0001 CJO=7.03529e-10
+VJ=0.4 M=0.501403 FC=0.5 TT=1e-09
+KF=0 AF=1
*$
**************************************
*      Model Generated by MODPEX     *
*Copyright(c) Symmetry Design Systems*
*         All Rights Reserved        *
*    UNPUBLISHED LICENSED SOFTWARE   *
*   Contains Proprietary Information *
*      Which is The Property of      *
*     SYMMETRY OR ITS LICENSORS      *
*Commercial Use or Resale Restricted *
*   by Symmetry License Agreement    *
**************************************
* Model generated on Nov 17, 00
* MODEL FORMAT: PSpice
.MODEL Dmbr20200ctp/ON d
+IS=7.27826e-05 RS=0.00577989 N=2.51387 EG=0.953093
+XTI=4 BV=200 IBV=0.0001 CJO=4.80195e-10
+VJ=0.2 M=0.422655 FC=0.5 TT=6.49213e-08
+KF=0 AF=1
*$
**************************************
*      Model Generated by MODPEX     *
*Copyright(c) Symmetry Design Systems*
*         All Rights Reserved        *
*    UNPUBLISHED LICENSED SOFTWARE   *
*   Contains Proprietary Information *