* Library of ON Semiconductor Bipolar Models

* $Revision:   1.0  $
* $Author:   HIRASUNA  $
* $Date:   20 Jul 2001 18:37:58  $

*---------------------------------------------------------------------------
*ON Semiconductor reserves the right to make changes without further
*notice to any products herein to improve reliability, function or
*design.  ON Semiconductor does not assume any liability arising out of the
*application or use of any product or circuit described herein;
*neither does it convey any license under its patent rights nor the
*rights of others.  ON Semiconductor products are not authorized for use as
*components in life support devices or systems intended for
*surgical implant into the body or intended to support or sustain
*life.  Buyer agrees to notify ON Semiconductor of any such intended end
*use whereupon ON Semiconductor shall determine availability and suitability
*or its product or products for the use intended.  ON Semiconductor is a
*registered trademark of ON Semiconductor, Inc.  ON Semiconductor, Inc. is
* an Equal Employment Opportunity/Affirmative Action Employer.
****************************************************
.SUBCKT 2n3904d/ON 1 2 3
**************************************
*      Model Generated by MODPEX     *
*Copyright(c) Symmetry Design Systems*
*         All Rights Reserved        *
*    UNPUBLISHED LICENSED SOFTWARE   *
*   Contains Proprietary Information *
*      Which is The Property of      *
*     SYMMETRY OR ITS LICENSORS      *
*Commercial Use or Resale Restricted *
*   by Symmetry License Agreement    *
**************************************
* Model generated on Jan 18, 01
* MODEL FORMAT: PSpice
* Darlington macro model
* External node designations
* Node 1 -> Collect
* Node 2 -> Base
* Node 3 -> Emitter
Q1 1 2 4 qmodel
Q2 1 4 3 q1model 1
D1 3 1 dmodel
R1 2 4 1e+06
R2 4 3 470
* Default values used in dmodel
*   EG=1.11 TT=0 BV=infinite
.MODEL dmodel d
+IS=1e-12 RS=0 N=0.670528 XTI=2.67053
+CJO=0 VJ=0.75 M=0.33 FC=0.5
.MODEL qmodel npn
+IS=2.51158e-12 BF=174.301 NF=1.2 VAF=30
+IKF=0.0570255 ISE=4.25624e-13 NE=1.63826 BR=0.675632
+NR=1.33928 VAR=10 IKR=0.096821 ISC=4.25624e-13
+NC=1.26838 RB=5.08906 IRB=0.1 RBM=5.08906
+RE=0.304971 RC=1.52485 XTB=0 XTI=2.21082 EG=1.05
+CJE=3.53042e-11 VJE=0.698981 MJE=0.329231 TF=1e-09
+XTF=1 VTF=10 ITF=0.01 CJC=1.43472e-11
+VJC=0.4 MJC=0.288078 XCJC=0.9 FC=0.5
+TR=1e-07 PTF=0 KF=0 AF=1
.MODEL q1model npn
+IS=2.51158e-12 BF=174.301 NF=1.2 VAF=30
+IKF=0.0570255 ISE=4.25624e-13 NE=1.63826 BR=0.675632
+NR=1.33928 VAR=10 IKR=0.096821 ISC=4.25624e-13
+NC=1.26838 RB=5.08906 IRB=0.1 RBM=5.08906
+RE=0.304971 RC=1.52485 XTB=0 XTI=2.21082 EG=1.05
+CJE=3.53042e-11 VJE=0.698981 MJE=0.329231 TF=1e-09
+XTF=1 VTF=10 ITF=0.01 CJC=0
+VJC=0.4 MJC=0.288078 XCJC=0.9 FC=0.5
+TR=1e-07 PTF=0 KF=0 AF=1
.ENDS 
*$
**************************************
*      Model Generated by MODPEX     *
*Copyright(c) Symmetry Design Systems*
*         All Rights Reserved        *
*    UNPUBLISHED LICENSED SOFTWARE   *
*   Contains Proprietary Information *
*      Which is The Property of      *
*     SYMMETRY OR ITS LICENSORS      *
*Commercial Use or Resale Restricted *
*   by Symmetry License Agreement    *
**************************************
* Model generated on May 31, 01
* MODEL FORMAT: PSpice
.MODEL Q2sd2114k/ON npn
+IS=5.06528e-14 BF=1091.19 NF=0.85 VAF=32.1699
+IKF=0.941639 ISE=9.69776e-12 NE=3.31558 BR=8.51039
+NR=0.885504 VAR=11.549 IKR=6.1496 ISC=9.24996e-14
+NC=4 RB=9.14712 IRB=0.1 RBM=0.1
+RE=0.000606715 RC=0.370182 XTB=1.91406 XTI=1
+EG=1.05 CJE=1.4022e-11 VJE=0.4 MJE=0.85
+TF=3.56959e-10 XTF=0.856876 VTF=8.09882 ITF=0.0142956
+CJC=2.24803e-11 VJC=0.76939 MJC=0.410197 XCJC=0.899998
+FC=0.688138 CJS=0 VJS=0.75 MJS=0.5
+TR=1e-07 PTF=0 KF=0 AF=1
*$
**************************************
*      Model Generated by MODPEX     *
*Copyright(c) Symmetry Design Systems*
*         All Rights Reserved        *
*    UNPUBLISHED LICENSED SOFTWARE   *
*   Contains Proprietary Information *
*      Which is The Property of      *
*     SYMMETRY OR ITS LICENSORS      *
*Commercial Use or Resale Restricted *
*   by Symmetry License Agreement    *
**************************************
* Model generated on Mar 26, 01
* MODEL FORMAT: PSpice
.MODEL Qbc546b/ON npn
+IS=1.66519e-12 BF=582.202 NF=1.20303 VAF=80.5225
+IKF=0.0304482 ISE=3.90112e-11 NE=2.21673 BR=49.1926
+NR=1.15821 VAR=36.8273 IKR=0.304482 ISC=3.73674e-15
+NC=1.06692 RB=52.316 IRB=0.1 RBM=0.1
+RE=0.557758 RC=2.78879 XTB=0.1 XTI=2.55097
+EG=1.05 CJE=2.92882e-11 VJE=0.901691 MJE=0.23
+TF=5.51008e-10 XTF=5.93149 VTF=6.46189 ITF=0.70235
+CJC=6.00724e-12 VJC=0.4 MJC=0.23 XCJC=0.803021
+FC=0.1 CJS=0 VJS=0.75 MJS=0.5
+TR=1e-07 PTF=0 KF=0 AF=1
*$
**************************************
*      Model Generated by MODPEX     *
*Copyright(c) Symmetry Design Systems*
*         All Rights Reserved        *
*    UNPUBLISHED LICENSED SOFTWARE   *
*   Contains Proprietary Information *
*      Which is The Property of      *
*     SYMMETRY OR ITS LICENSORS      *
*Commercial Use or Resale Restricted *
*   by Symmetry License Agreement    *
**************************************
* Model generated on Feb 27, 00
* MODEL FORMAT: PSpice
.MODEL Qbc847bdw1t1/ON npn
+IS=1.25144e-12 BF=3514.94 NF=1.17906 VAF=29.8584
+IKF=0.00409784 ISE=1.64227e-10 NE=2.41778 BR=100
+NR=1.21622 VAR=298.584 IKR=0.0409784 ISC=1.64227e-10
+NC=1.76224 RB=34.1781 IRB=0.1 RBM=0.1
+RE=0.445455 RC=2.22728 XTB=0.1 XTI=1
+EG=1.05 CJE=7.44237e-12 VJE=0.416591 MJE=0.277923
+TF=5.33664e-10 XTF=1.08062 VTF=76.271 ITF=0.207894
+CJC=4.10576e-12 VJC=0.95 MJC=0.346253 XCJC=0.799987
+FC=0.8 CJS=0 VJS=0.75 MJS=0.5
+TR=1e-07 PTF=0 KF=0 AF=1
*$
**************************************
*      Model Generated by MODPEX     *
*Copyright(c) Symmetry Design Systems*
*         All Rights Reserved        *
*    UNPUBLISHED LICENSED SOFTWARE   *
*   Contains Proprietary Information *
*      Which is The Property of      *
*     SYMMETRY OR ITS LICENSORS      *
*Commercial Use or Resale Restricted *
*   by Symmetry License Agreement    *
**************************************
* Model generated on Jun  1, 01
* MODEL FORMAT: PSpice
.MODEL Qbc847blt1/ON npn
+IS=2.76124e-13 BF=466.258 NF=1.17046 VAF=16.3781
+IKF=0.0170001 ISE=6.74702e-13 NE=1.73647 BR=3.36043
+NR=1.20268 VAR=91.2924 IKR=0.100003 ISC=1.90349e-13
+NC=1.83396 RB=2.16671 IRB=0.203737 RBM=2.16671
+RE=0.0781669 RC=0.93387 XTB=0.0298315 XTI=2.34801
+EG=1.05 CJE=1.62808e-11 VJE=0.706007 MJE=0.23
+TF=5.81975e-10 XTF=2.45329 VTF=24.2047 ITF=0.12332
+CJC=4.06446e-12 VJC=0.95 MJC=0.34297 XCJC=0.799999
+FC=0.562078 CJS=0 VJS=0.75 MJS=0.5
+TR=1e-07 PTF=0 KF=0 AF=1
*$
**************************************
*      Model Generated by MODPEX     *
*Copyright(c) Symmetry Design Systems*
*         All Rights Reserved        *
*    UNPUBLISHED LICENSED SOFTWARE   *
*   Contains Proprietary Information *
*      Which is The Property of      *
*     SYMMETRY OR ITS LICENSORS      *
*Commercial Use or Resale Restricted *
*   by Symmetry License Agreement    *
**************************************
* Model generated on Feb 28, 00
* MODEL FORMAT: PSpice
.MODEL Qbc847bpdw1t1_npn/ON npn
+IS=1.02883e-10 BF=3441.88 NF=1.5 VAF=50.4069
+IKF=0.0513316 ISE=6.57032e-12 NE=1.90684 BR=11.3392
+NR=1.5 VAR=2.18491 IKR=0.513316 ISC=1e-16
+NC=4 RB=0.117532 IRB=0.100021 RBM=0.100913
+RE=0.376664 RC=1.88332 XTB=50 XTI=4
+EG=1.05 CJE=9.22073e-12 VJE=0.680201 MJE=0.85
+TF=5.8626e-10 XTF=3.3324 VTF=7.33802 ITF=0.210664
+CJC=4.07024e-12 VJC=0.95 MJC=0.347426 XCJC=0.800007
+FC=0.114115 CJS=0 VJS=0.75 MJS=0.5
+TR=1e-07 PTF=0 KF=0 AF=1
*$
**************************************
*      Model Generated by MODPEX     *
*Copyright(c) Symmetry Design Systems*
*         All Rights Reserved        *
*    UNPUBLISHED LICENSED SOFTWARE   *
*   Contains Proprietary Information *
*      Which is The Property of      *
*     SYMMETRY OR ITS LICENSORS      *
*Commercial Use or Resale Restricted *
*   by Symmetry License Agreement    *
**************************************
* Model generated on Feb 29, 00
* MODEL FORMAT: PSpice
.MODEL Qbc847bpdw1t1_pnp/ON pnp
+IS=1.5328e-12 BF=9112.51 NF=1.19795 VAF=1000
+IKF=0.0262758 ISE=1.59735e-11 NE=2.01554 BR=0.1
+NR=1.5 VAR=1.53185 IKR=0.262758 ISC=1e-16
+NC=3.99923 RB=14.3809 IRB=0.1 RBM=0.1
+RE=0.417304 RC=2.29232 XTB=0.100827 XTI=1
+EG=1.05 CJE=1.15731e-11 VJE=0.563603 MJE=0.23
+TF=6.29309e-10 XTF=0.05 VTF=0.348889 ITF=0.009253
+CJC=9.22502e-12 VJC=0.4 MJC=0.410241 XCJC=0.896891
+FC=0.704977 CJS=0 VJS=0.75 MJS=0.5
+TR=1e-07 PTF=0 KF=0 AF=1
*$
**************************************
*      Model Generated by MODPEX     *
*Copyright(c) Symmetry Design Systems*
*         All Rights Reserved        *
*    UNPUBLISHED LICENSED SOFTWARE   *
*   Contains Proprietary Information *
*      Which is The Property of      *
*     SYMMETRY OR ITS LICENSORS      *
*Commercial Use or Resale Restricted *
*   by Symmetry License Agreement    *
**************************************
* Model generated on Apr 15, 00
* MODEL FORMAT: PSpice
.MODEL Qbc847btt1/ON npn
+IS=1.80956e-11 BF=3206.81 NF=1.24829 VAF=74.2475
+IKF=0.331049 ISE=6.70883e-12 NE=1.78343 BR=0.931294
+NR=1.5 VAR=0.991349 IKR=0.0437657 ISC=6.70883e-12
+NC=1.38133 RB=0.1 IRB=0.0999999 RBM=0.1
+RE=0.0001 RC=0.001 XTB=0.1 XTI=4
+EG=1.206 CJE=7.54267e-12 VJE=0.495122 MJE=0.311035
+TF=5.82361e-10 XTF=3.81361 VTF=43.6526 ITF=0.382049
+CJC=4.16234e-12 VJC=0.95 MJC=0.34598 XCJC=0.8
+FC=0.8 CJS=0 VJS=0.75 MJS=0.5
+TR=3.7677e-08 PTF=0 KF=0 AF=1
*$
**************************************
*      Model Generated by MODPEX     *
*Copyright(c) Symmetry Design Systems*
*         All Rights Reserved        *
*    UNPUBLISHED LICENSED SOFTWARE   *
*   Contains Proprietary Information *
*      Which is The Property of      *
*     SYMMETRY OR ITS LICENSORS      *
*Commercial Use or Resale Restricted *
*   by Symmetry License Agreement    *
**************************************
* Model generated on Apr 16, 00
* MODEL FORMAT: PSpice
.MODEL Qbc847ctt1/ON npn
+IS=6.99761e-12 BF=1365.43 NF=1.24725 VAF=8.25985
+IKF=0.116881 ISE=1.44952e-11 NE=2.07829 BR=1.23018
+NR=1.5 VAR=1.28805 IKR=1.16881 ISC=1.44952e-11
+NC=1.5926 RB=0.1 IRB=0.1 RBM=0.1
+RE=0.0401459 RC=0.20073 XTB=50 XTI=1
+EG=1.05 CJE=7.66014e-12 VJE=0.432246 MJE=0.300499
+TF=5.86928e-10 XTF=9.47956 VTF=60.1594 ITF=0.166646
+CJC=4.16234e-12 VJC=0.95 MJC=0.34598 XCJC=0.8
+FC=0.8 CJS=0 VJS=0.75 MJS=0.5
+TR=9.6728e-06 PTF=0 KF=0 AF=1
*$
**************************************
*      Model Generated by MODPEX     *
*Copyright(c) Symmetry Design Systems*
*         All Rights Reserved        *
*    UNPUBLISHED LICENSED SOFTWARE   *
*   Contains Proprietary Information *
*      Which is The Property of      *
*     SYMMETRY OR ITS LICENSORS      *
*Commercial Use or Resale Restricted *
*   by Symmetry License Agreement    *
**************************************
* Model generated on Mar 14, 01
* MODEL FORMAT: PSpice
.MODEL Qbc857alt1/ON pnp
+IS=1.99131e-13 BF=10000 NF=1.1535 VAF=10
+IKF=0.00456195 ISE=2.88584e-12 NE=1.75961 BR=0.1
+NR=1.40336 VAR=99.9998 IKR=0.0456195 ISC=2.88584e-12
+NC=2.91929 RB=26.9308 IRB=0.1 RBM=0.1
+RE=0.381995 RC=1.90998 XTB=0.1 XTI=1
+EG=1.05 CJE=1.23635e-11 VJE=0.4 MJE=0.23
+TF=5.48572e-10 XTF=0.505777 VTF=5.75864 ITF=0.0204329
+CJC=9.10445e-12 VJC=0.4 MJC=0.400543 XCJC=0.899984
+FC=0.602643 CJS=0 VJS=0.75 MJS=0.5
+TR=1e-07 PTF=0 KF=0 AF=1
*$
**************************************
*      Model Generated by MODPEX     *
*Copyright(c) Symmetry Design Systems*
*         All Rights Reserved        *
*    UNPUBLISHED LICENSED SOFTWARE   *
*   Contains Proprietary Information *
*      Which is The Property of      *
*     SYMMETRY OR ITS LICENSORS      *
*Commercial Use or Resale Restricted *
*   by Symmetry License Agreement    *
**************************************
* Model generated on Nov 13, 00
* MODEL FORMAT: PSpice
.MODEL Qbc857bdw1t1/ON pnp
+IS=1.13696e-11 BF=389.631 NF=1.36485 VAF=1000
+IKF=0.282591 ISE=1.07858e-10 NE=2.89435 BR=0.483608
+NR=1.5 VAR=374.933 IKR=2.82591 ISC=4.65845e-13
+NC=3.96109 RB=27.1106 IRB=0.1 RBM=0.1
+RE=0.635274 RC=3.17637 XTB=0.1 XTI=1.13963
+EG=1.206 CJE=1.15028e-11 VJE=0.630731 MJE=0.247196
+TF=6.05665e-10 XTF=1000 VTF=16426.9 ITF=6.48696
+CJC=9.36808e-12 VJC=0.4 MJC=0.415099 XCJC=0.898403
+FC=0.8 CJS=0 VJS=0.75 MJS=0.5
+TR=3.10562e-10 PTF=0 KF=0 AF=1
*$
**************************************
*      Model Generated by MODPEX     *
*Copyright(c) Symmetry Design Systems*
*         All Rights Reserved        *
*    UNPUBLISHED LICENSED SOFTWARE   *
*   Contains Proprietary Information *
*      Which is The Property of      *
*     SYMMETRY OR ITS LICENSORS      *
*Commercial Use or Resale Restricted *
*   by Symmetry License Agreement    *
**************************************
* Model generated on Apr 17, 00
* MODEL FORMAT: PSpice
.MODEL Qbc857btt1/ON pnp
+IS=1.25272e-10 BF=2358.53 NF=1.54851 VAF=45.868
+IKF=0.316245 ISE=5.44821e-12 NE=2.06927 BR=11.8682
+NR=1.59291 VAR=1.15144 IKR=3.16245 ISC=5.44821e-12
+NC=4 RB=0.982164 IRB=0.1 RBM=0.1
+RE=0.323159 RC=1.6158 XTB=50 XTI=1
+EG=1.05 CJE=1.13765e-11 VJE=0.738732 MJE=0.249627
+TF=5.88903e-10 XTF=1000 VTF=1577.31 ITF=16.0888
+CJC=9.41027e-12 VJC=0.4 MJC=0.419684 XCJC=0.899995
+FC=0.8 CJS=0 VJS=0.75 MJS=0.5
+TR=1.29603e-10 PTF=0 KF=0 AF=1
*$
**************************************
*      Model Generated by MODPEX     *
*Copyright(c) Symmetry Design Systems*
*         All Rights Reserved        *
*    UNPUBLISHED LICENSED SOFTWARE   *
*   Contains Proprietary Information *
*      Which is The Property of      *
*     SYMMETRY OR ITS LICENSORS      *
*Commercial Use or Resale Restricted *
*   by Symmetry License Agreement    *
**************************************
* Model generated on Apr 18, 00
* MODEL FORMAT: PSpice
.MODEL Qbc857ctt1/ON pnp
+IS=2.14545e-10 BF=2054.42 NF=1.55236 VAF=31.8949
+IKF=0.357001 ISE=2.8296e-12 NE=1.8672 BR=1.47809
+NR=1.78421 VAR=1.16198 IKR=3.57001 ISC=2.8296e-12
+NC=3.92677 RB=0.000971968 IRB=0.0843271 RBM=0.000971968
+RE=0.352503 RC=1.76252 XTB=0.00929738 XTI=0.434935
+EG=3.3926 CJE=1.14501e-11 VJE=0.717654 MJE=0.249297
+TF=5.89722e-10 XTF=1000 VTF=1578.18 ITF=12.4838
+CJC=9.48549e-12 VJC=0.4 MJC=0.421688 XCJC=0.899995
+FC=0.8 CJS=0 VJS=0.75 MJS=0.5
+TR=6.08185e-06 PTF=0 KF=0 AF=1
*$
.SUBCKT dta114eet1/ON 1 2 3 
**************************************
*      Model Generated by MODPEX     *
*Copyright(c) Symmetry Design Systems*
*         All Rights Reserved        *
*    UNPUBLISHED LICENSED SOFTWARE   *
*   Contains Proprietary Information *
*      Which is The Property of      *
*     SYMMETRY OR ITS LICENSORS      *
*Commercial Use or Resale Restricted *
*   by Symmetry License Agreement    *
**************************************
* MODEL FORMAT: PSpice
* BRT macro model
* External node 
* Node 1 -> BRT_C
* Node 2 -> BRT_B
* Node 3 -> BRT_E
QOUT 1 4 3 qmodel
R1   2 4 10000
R2   4 3 10000
.MODEL qmodel pnp
+IS=1.45353e-14 BF=201.578 NF=1.0689 VAF=70.4157
+IKF=0.0937743 ISE=2.69024e-15 NE=1.8994 BR=2.30273
+NR=1.09444 VAR=176.711 IKR=0.0680789 ISC=9.08823e-14
+NC=2.62106 RB=9.97124 IRB=0.2 RBM=9.97124
+RE=0.0654023 RC=1.54896 XTB=0.103329 XTI=3.04909 EG=1.206
+CJE=2.55801e-12 VJE=0.746499 MJE=0.333828 TF=1e-09
+XTF=1 VTF=10 ITF=0.01 CJC=3.07272e-12
+VJC=1.04014 MJC=0.170789 XCJC=0.9 FC=0.5
.ENDS
*$
.SUBCKT dta114erlra/ON 1 2 3 
**************************************
*      Model Generated by MODPEX     *
*Copyright(c) Symmetry Design Systems*
*         All Rights Reserved        *
*    UNPUBLISHED LICENSED SOFTWARE   *
*   Contains Proprietary Information *
*      Which is The Property of      *
*     SYMMETRY OR ITS LICENSORS      *
*Commercial Use or Resale Restricted *
*   by Symmetry License Agreement    *
**************************************
* MODEL FORMAT: PSpice
* BRT macro model
* External node 
* Node 1 -> BRT_C
* Node 2 -> BRT_B
* Node 3 -> BRT_E
QOUT 1 4 3 qmodel
R1   2 4 10000
R2   4 3 10000
.MODEL qmodel pnp
+IS=1.24115e-14 BF=217.078 NF=1.06513 VAF=70.9109
+IKF=0.0638166 ISE=2.66819e-15 NE=1.90388 BR=2.28907
+NR=1.09189 VAR=176.744 IKR=0.070362 ISC=9.08811e-14
+NC=2.62109 RB=9.97095 IRB=0.2 RBM=9.97095
+RE=0.0572462 RC=1.58164 XTB=0.10139 XTI=3.05315 EG=1.206

+CJE=2.55801e-12 VJE=0.746499 MJE=0.333828 TF=1e-09
+XTF=1 VTF=10 ITF=0.01 CJC=3.07272e-12
+VJC=1.04014 MJC=0.170789 XCJC=0.9 FC=0.5
.ENDS
*$
.SUBCKT dta114tet1/ON 1 2 3 
**************************************
*      Model Generated by MODPEX     *
*Copyright(c) Symmetry Design Systems*
*         All Rights Reserved        *
*    UNPUBLISHED LICENSED SOFTWARE   *
*   Contains Proprietary Information *
*      Which is The Property of      *
*     SYMMETRY OR ITS LICENSORS      *
*Commercial Use or Resale Restricted *
*   by Symmetry License Agreement    *
**************************************
* MODEL FORMAT: PSpice
* BRT macro model
* External node 
* Node 1 -> BRT_C
* Node 2 -> BRT_B
* Node 3 -> BRT_E
QOUT 1 4 3 qmodel
R1   2 4 10000
R2   4 3 1e+12
.MODEL qmodel pnp
+IS=2.15531e-13 BF=303.07 NF=1.14286 VAF=110.379
+IKF=0.119572 ISE=5.51785e-15 NE=4 BR=0.256354
+NR=1.32882 VAR=96.2336 IKR=0.000300419 ISC=6.26992e-15
+NC=1.99009 RB=9.88918 IRB=0.17941 RBM=0.979013
+RE=3.98528 RC=0.001 XTB=0.100541 XTI=3.27715 EG=1.206
+CJE=1.055e-11 VJE=0.750034 MJE=0.329967 TF=1e-09
+XTF=1 VTF=10 ITF=0.01 CJC=9.48712e-12
+VJC=0.0212146 MJC=0.20322 XCJC=0.9 FC=0.5
.ENDS
*$
.SUBCKT dta114trlra/ON 1 2 3 
**************************************
*      Model Generated by MODPEX     *
*Copyright(c) Symmetry Design Systems*
*         All Rights Reserved        *
*    UNPUBLISHED LICENSED SOFTWARE   *
*   Contains Proprietary Information *
*      Which is The Property of      *
*     SYMMETRY OR ITS LICENSORS      *
*Commercial Use or Resale Restricted *
*   by Symmetry License Agreement    *
**************************************
* MODEL FORMAT: PSpice
* BRT macro model
* External node 
* Node 1 -> BRT_C
* Node 2 -> BRT_B
* Node 3 -> BRT_E
QOUT 1 4 3 qmodel
R1   2 4 10000
R2   4 3 1e+12
.MODEL qmodel pnp
+IS=2.15531e-13 BF=303.07 NF=1.14286 VAF=110.379
+IKF=0.119572 ISE=5.51785e-15 NE=4 BR=0.256354
+NR=1.32882 VAR=96.2336 IKR=0.000300419 ISC=6.26992e-15
+NC=1.99009 RB=9.88918 IRB=0.17941 RBM=0.979013
+RE=3.98528 RC=0.001 XTB=0.100541 XTI=3.27715 EG=1.206
+CJE=1.0394e-11 VJE=0.750033 MJE=0.329968 TF=1e-09
+XTF=1 VTF=10 ITF=0.01 CJC=9.54334e-12
+VJC=0.0210543 MJC=0.203894 XCJC=0.9 FC=0.5
.ENDS
*$
.SUBCKT dta114yet1/ON 1 2 3 
**************************************
*      Model Generated by MODPEX     *
*Copyright(c) Symmetry Design Systems*
*         All Rights Reserved        *
*    UNPUBLISHED LICENSED SOFTWARE   *
*   Contains Proprietary Information *
*      Which is The Property of      *
*     SYMMETRY OR ITS LICENSORS      *
*Commercial Use or Resale Restricted *
*   by Symmetry License Agreement    *
**************************************
* MODEL FORMAT: PSpice
* BRT macro model
* External node 
* Node 1 -> BRT_C
* Node 2 -> BRT_B
* Node 3 -> BRT_E
QOUT 1 4 3 qmodel
R1   2 4 10000
R2   4 3 47000
.MODEL qmodel pnp
+IS=1.35214e-12 BF=127.637 NF=1.29186 VAF=13.1568
+IKF=0.0566399 ISE=1e-16 NE=1.52381 BR=1.83217
+NR=1.35146 VAR=93.9316 IKR=0.311165 ISC=1e-16
+NC=1.42961 RB=49.4463 IRB=0.2 RBM=10
+RE=0.000114388 RC=1.98947 XTB=0.499149 XTI=3.02497 EG=1.05032
+CJE=4.15456e-12 VJE=0.747361 MJE=0.332883 TF=1e-09
+XTF=1 VTF=10 ITF=0.01 CJC=4.43596e-12
+VJC=0.0935338 MJC=0.132163 XCJC=0.9 FC=0.5
.ENDS
*$
.SUBCKT dta114yrlra/ON 1 2 3 
**************************************
*      Model Generated by MODPEX     *
*Copyright(c) Symmetry Design Systems*
*         All Rights Reserved        *
*    UNPUBLISHED LICENSED SOFTWARE   *
*   Contains Proprietary Information *
*      Which is The Property of      *
*     SYMMETRY OR ITS LICENSORS      *
*Commercial Use or Resale Restricted *
*   by Symmetry License Agreement    *
**************************************
* MODEL FORMAT: PSpice
* BRT macro model
* External node 
* Node 1 -> BRT_C
* Node 2 -> BRT_B
* Node 3 -> BRT_E
QOUT 1 4 3 qmodel
R1   2 4 10000
R2   4 3 47000
.MODEL qmodel pnp
+IS=1.35212e-12 BF=127.636 NF=1.29185 VAF=13.1569
+IKF=0.0566391 ISE=1e-16 NE=1.52381 BR=1.83217
+NR=1.35146 VAR=93.9316 IKR=0.311164 ISC=1e-16
+NC=1.42961 RB=49.4463 IRB=0.2 RBM=10
+RE=0.000114388 RC=1.98946 XTB=0.499149 XTI=3.02497 EG=1.05032
+CJE=4.15456e-12 VJE=0.747361 MJE=0.332883 TF=1e-09
+XTF=1 VTF=10 ITF=0.01 CJC=4.43596e-12
+VJC=0.0935338 MJC=0.132163 XCJC=0.9 FC=0.5
.ENDS
*$
.SUBCKT dta124eet1/ON 1 2 3 
**************************************
*      Model Generated by MODPEX     *
*Copyright(c) Symmetry Design Systems*
*         All Rights Reserved        *
*    UNPUBLISHED LICENSED SOFTWARE   *
*   Contains Proprietary Information *
*      Which is The Property of      *
*     SYMMETRY OR ITS LICENSORS      *
*Commercial Use or Resale Restricted *
*   by Symmetry License Agreement    *
**************************************
* MODEL FORMAT: PSpice
* BRT macro model
* External node 
* Node 1 -> BRT_C
* Node 2 -> BRT_B
* Node 3 -> BRT_E
QOUT 1 4 3 qmodel
R1   2 4 22000
R2   4 3 22000
.MODEL qmodel pnp
+IS=1.48296e-13 BF=297.61 NF=0.801599 VAF=16.4474
+IKF=0.0231067 ISE=2.21742e-12 NE=1.19976 BR=1.06634
+NR=0.843953 VAR=100.032 IKR=0.0963899 ISC=9.99994e-14
+NC=2.00001 RB=9.92467 IRB=0.2 RBM=0.992467
+RE=0.243946 RC=2.51025 XTB=0.484956 XTI=2.9904 EG=1.05
+CJE=2.55845e-13 VJE=0.746252 MJE=0.334094 TF=1e-09
+XTF=1 VTF=10 ITF=0.01 CJC=3.2577e-12
+VJC=1.11327 MJC=0.193646 XCJC=0.9 FC=0.5
.ENDS
*$
.SUBCKT dta124erlra/ON 1 2 3 
**************************************
*      Model Generated by MODPEX     *
*Copyright(c) Symmetry Design Systems*
*         All Rights Reserved        *
*    UNPUBLISHED LICENSED SOFTWARE   *
*   Contains Proprietary Information *
*      Which is The Property of      *
*     SYMMETRY OR ITS LICENSORS      *
*Commercial Use or Resale Restricted *
*   by Symmetry License Agreement    *
**************************************
* MODEL FORMAT: PSpice
* BRT macro model
* External node 
* Node 1 -> BRT_C
* Node 2 -> BRT_B
* Node 3 -> BRT_E
QOUT 1 4 3 qmodel
R1   2 4 22000
R2   4 3 22000
.MODEL qmodel pnp
+IS=1.48296e-13 BF=297.61 NF=0.801599 VAF=16.4474
+IKF=0.0231067 ISE=2.21742e-12 NE=1.19976 BR=1.06634
+NR=0.843953 VAR=100.032 IKR=0.0963899 ISC=9.99994e-14
+NC=2.00001 RB=9.92467 IRB=0.2 RBM=0.992467
+RE=0.243946 RC=2.51025 XTB=0.484956 XTI=2.9904 EG=1.05
+CJE=2.55845e-13 VJE=0.746252 MJE=0.334094 TF=1e-09
+XTF=1 VTF=10 ITF=0.01 CJC=3.2577e-12
+VJC=1.11327 MJC=0.193646 XCJC=0.9 FC=0.5
.ENDS
*$
.SUBCKT dta144eet1/ON 1 2 3 
**************************************
*      Model Generated by MODPEX     *
*Copyright(c) Symmetry Design Systems*
*         All Rights Reserved        *
*    UNPUBLISHED LICENSED SOFTWARE   *
*   Contains Proprietary Information *
*      Which is The Property of      *
*     SYMMETRY OR ITS LICENSORS      *
*Commercial Use or Resale Restricted *
*   by Symmetry License Agreement    *
**************************************
* MODEL FORMAT: PSpice
* BRT macro model
* External node 
* Node 1 -> BRT_C
* Node 2 -> BRT_B
* Node 3 -> BRT_E
QOUT 1 4 3 qmodel
R1   2 4 47000
R2   4 3 47000
.MODEL qmodel pnp
+IS=2.90186e-14 BF=618.444 NF=0.999526 VAF=15.0621
+IKF=0.0187027 ISE=2.45494e-12 NE=1.63322 BR=3.86242
+NR=1.02544 VAR=101.182 IKR=0.0397529 ISC=9.88265e-14
+NC=2.07495 RB=9.94583 IRB=0.2 RBM=9.94583
+RE=2.23624 RC=1.5403 XTB=0.384119 XTI=3.00248 EG=1.206
+CJE=4.51998e-12 VJE=0.677459 MJE=0.4079 TF=1e-09
+XTF=1 VTF=10 ITF=0.01 CJC=1.10472e-12
+VJC=10.3001 MJC=0.9 XCJC=0.9 FC=0.5
.ENDS
*$
.SUBCKT dta144erlra/ON 1 2 3 
**************************************
*      Model Generated by MODPEX     *
*Copyright(c) Symmetry Design Systems*
*         All Rights Reserved        *
*    UNPUBLISHED LICENSED SOFTWARE   *
*   Contains Proprietary Information *
*      Which is The Property of      *
*     SYMMETRY OR ITS LICENSORS      *
*Commercial Use or Resale Restricted *
*   by Symmetry License Agreement    *
**************************************
* MODEL FORMAT: PSpice
* BRT macro model
* External node 
* Node 1 -> BRT_C
* Node 2 -> BRT_B
* Node 3 -> BRT_E
QOUT 1 4 3 qmodel
R1   2 4 47000
R2   4 3 47000
.MODEL qmodel pnp
+IS=2.90186e-14 BF=618.444 NF=0.999526 VAF=15.0621
+IKF=0.0187027 ISE=2.45494e-12 NE=1.63322 BR=3.86242
+NR=1.02544 VAR=101.182 IKR=0.0397529 ISC=9.88265e-14
+NC=2.07495 RB=9.94583 IRB=0.2 RBM=9.94583
+RE=2.23624 RC=1.5403 XTB=0.384119 XTI=3.00248 EG=1.206
+CJE=3.76112e-12 VJE=0.677197 MJE=0.408132 TF=1e-09
+XTF=1 VTF=10 ITF=0.01 CJC=1.06423e-12
+VJC=14.7182 MJC=0.9 XCJC=0.9 FC=0.5
.ENDS
*$
.SUBCKT mun2211t1/ON 1 2 3 
**************************************
*      Model Generated by MODPEX     *
*Copyright(c) Symmetry Design Systems*
*         All Rights Reserved        *
*    UNPUBLISHED LICENSED SOFTWARE   *
*   Contains Proprietary Information *
*      Which is The Property of      *
*     SYMMETRY OR ITS LICENSORS      *
*Commercial Use or Resale Restricted *
*   by Symmetry License Agreement    *
**************************************
* MODEL FORMAT: PSpice
* BRT macro model
* External node 
* Node 1 -> BRT_C
* Node 2 -> BRT_B
* Node 3 -> BRT_E
QOUT 1 4 3 qmodel
R1   2 4 10000
R2   4 3 10000
.MODEL qmodel npn
+IS=1.30131e-13 BF=207.378 NF=1.02751 VAF=15.5775
+IKF=0.175355 ISE=7.68466e-13 NE=2.02118 BR=0.249468
+NR=1.19435 VAR=99.176 IKR=0.115701 ISC=1.00096e-13
+NC=1.994 RB=10.083 IRB=0.2 RBM=10
+RE=0.0336736 RC=1.75981 XTB=0.516585 XTI=2.99903 EG=1.07226
+CJE=1e-13 VJE=0.743641 MJE=0.336915 TF=1e-09
+XTF=1 VTF=10 ITF=0.01 CJC=3.33684e-12
+VJC=101.031 MJC=0.9 XCJC=0.9 FC=0.5
.ENDS
*$
.SUBCKT dtc114yet1/ON 1 2 3 
**************************************
*      Model Generated by MODPEX     *
*Copyright(c) Symmetry Design Systems*
*         All Rights Reserved        *
*    UNPUBLISHED LICENSED SOFTWARE   *
*   Contains Proprietary Information *
*      Which is The Property of      *
*     SYMMETRY OR ITS LICENSORS      *
*Commercial Use or Resale Restricted *
*   by Symmetry License Agreement    *
**************************************
* MODEL FORMAT: PSpice
* BRT macro model
* External node 
* Node 1 -> BRT_C
* Node 2 -> BRT_B
* Node 3 -> BRT_E
QOUT 1 4 3 qmodel
R1   2 4 10000
R2   4 3 47000
.MODEL qmodel npn
+IS=5.4752e-13 BF=274.662 NF=1.27625 VAF=73.3962
+IKF=0.166492 ISE=1e-16 NE=4 BR=0.849547
+NR=1.41353 VAR=353.997 IKR=4.72811 ISC=1.00036e-16
+NC=4 RB=11.4602 IRB=0.2 RBM=10
+RE=0.000100042 RC=1.2557 XTB=0.10002 XTI=3.33565 EG=1.05
+CJE=6.30754e-12 VJE=0.748168 MJE=0.332003 TF=1e-09
+XTF=1 VTF=10 ITF=0.01 CJC=4.07415e-12
+VJC=0.267693 MJC=0.139968 XCJC=0.9 FC=0.5
.ENDS
*$
.SUBCKT dtc114yrlra/ON 1 2 3 
**************************************
*      Model Generated by MODPEX     *
*Copyright(c) Symmetry Design Systems*
*         All Rights Reserved        *
*    UNPUBLISHED LICENSED SOFTWARE   *
*   Contains Proprietary Information *
*      Which is The Property of      *
*     SYMMETRY OR ITS LICENSORS      *
*Commercial Use or Resale Restricted *
*   by Symmetry License Agreement    *
**************************************
* MODEL FORMAT: PSpice
* BRT macro model
* External node 
* Node 1 -> BRT_C
* Node 2 -> BRT_B
* Node 3 -> BRT_E
QOUT 1 4 3 qmodel
R1   2 4 10000
R2   4 3 47000
.MODEL qmodel npn
+IS=5.4752e-13 BF=274.662 NF=1.27625 VAF=73.3962
+IKF=0.166492 ISE=1e-16 NE=4 BR=0.849547
+NR=1.41353 VAR=353.997 IKR=4.72811 ISC=1.00036e-16
+NC=4 RB=11.4602 IRB=0.2 RBM=10
+RE=0.000100042 RC=1.2557 XTB=0.10002 XTI=3.33565 EG=1.05
+CJE=6.30754e-12 VJE=0.748168 MJE=0.332003 TF=1e-09
+XTF=1 VTF=10 ITF=0.01 CJC=4.07415e-12
+VJC=0.267693 MJC=0.139968 XCJC=0.9 FC=0.5
.ENDS
*$
.SUBCKT dtc124eet1/ON 1 2 3 
**************************************
*      Model Generated by MODPEX     *
*Copyright(c) Symmetry Design Systems*
*         All Rights Reserved        *
*    UNPUBLISHED LICENSED SOFTWARE   *
*   Contains Proprietary Information *
*      Which is The Property of      *
*     SYMMETRY OR ITS LICENSORS      *
*Commercial Use or Resale Restricted *
*   by Symmetry License Agreement    *
**************************************
* MODEL FORMAT: PSpice
* BRT macro model
* External node 
* Node 1 -> BRT_C
* Node 2 -> BRT_B
* Node 3 -> BRT_E
QOUT 1 4 3 qmodel
R1   2 4 22000
R2   4 3 22000
.MODEL qmodel npn
+IS=8.38182e-14 BF=391.043 NF=1.23872 VAF=23.6405
+IKF=0.0862729 ISE=1e-16 NE=1.79966 BR=0.778367
+NR=1.3733 VAR=102.425 IKR=0.0975384 ISC=9.81319e-14
+NC=1.97115 RB=9.98732 IRB=0.2 RBM=9.98732
+RE=0.000100007 RC=2.00128 XTB=0.432465 XTI=2.99938 EG=1.0861
+CJE=1.04819e-13 VJE=0.745448 MJE=0.33498 TF=1e-09
+XTF=1 VTF=10 ITF=0.01 CJC=3.28042e-12
+VJC=1.83603 MJC=0.295425 XCJC=0.9 FC=0.5
.ENDS
*$
.SUBCKT dtc124erlra/ON 1 2 3 
**************************************
*      Model Generated by MODPEX     *
*Copyright(c) Symmetry Design Systems*
*         All Rights Reserved        *
*    UNPUBLISHED LICENSED SOFTWARE   *
*   Contains Proprietary Information *
*      Which is The Property of      *
*     SYMMETRY OR ITS LICENSORS      *
*Commercial Use or Resale Restricted *
*   by Symmetry License Agreement    *
**************************************
* MODEL FORMAT: PSpice
* BRT macro model
* External node 
* Node 1 -> BRT_C
* Node 2 -> BRT_B
* Node 3 -> BRT_E
QOUT 1 4 3 qmodel
R1   2 4 22000
R2   4 3 22000
.MODEL qmodel npn
+IS=8.38182e-14 BF=391.043 NF=1.23872 VAF=23.6405
+IKF=0.0862729 ISE=1e-16 NE=1.79966 BR=0.778367
+NR=1.3733 VAR=102.425 IKR=0.0975384 ISC=9.81319e-14
+NC=1.97115 RB=9.98732 IRB=0.2 RBM=9.98732
+RE=0.000100007 RC=2.00128 XTB=0.432465 XTI=2.99938 EG=1.0861
+CJE=1.04819e-13 VJE=0.745448 MJE=0.33498 TF=1e-09
+XTF=1 VTF=10 ITF=0.01 CJC=3.28042e-12
+VJC=1.83603 MJC=0.295425 XCJC=0.9 FC=0.5
.ENDS
*$
.SUBCKT dtc144eet1/ON 1 2 3 
**************************************
*      Model Generated by MODPEX     *
*Copyright(c) Symmetry Design Systems*
*         All Rights Reserved        *
*    UNPUBLISHED LICENSED SOFTWARE   *