*Coilcraft RF Inductor Netlists
*
*For any information on Coilcraft modeling please
*visit http://www.coilcraft.com/models.cfm
*
*Disclaimer:
*
*Coilcraft makes every attempt to provide accurate measurement
*data and software, representative of our components,
*in a usable format. Coilcraft, however, disclaims
*all warrants relating to the use of its data and software,
*whether expressed or implied, including without limitation
*any implied warranties of merchantability or fitness for a
*particular purpose. Coilcraft cannot and will not be liable
*for any special, incidental, consequential, indirect or
*similar damages occurring with the use of the data and/
*or software.


*Coilcraft 0402CS Chip Inductor Series
*Netlist for spice models
*Updated 4/27/05


*0402CS-1N0 valid from 1-21300 MHz

.SUBCKT 0402CS-1N0  N1 N2
+ PARAMS: K1=3.40e-06
R_R1          $N_0002 N2 6 
R_R2        N1  $N_0001 0.001 
R_R3         N1 N2 10meg 
R_Rsim     0 $N_0003 10meg 
L_L1       $N_0003 N2 1.00nH
G_Rvar1     $N_0001 $N_0003 LAPLACE { V($N_0001, $N_0003) } { 
+ 1/(k1*sqrt(S/(2*3.14159265))) } 
C_C            $N_0001 $N_0002 .068pF 
.ENDS

*0402CS-1N9 valid from 1-21200 MHz

.SUBCKT 0402CS-1N9  N1 N2
+ PARAMS: K1=1.01e-05
R_R1          $N_0002 N2 12 
R_R2        N1  $N_0001 0.002 
R_R3         N1 N2 10meg 
R_Rsim     0 $N_0003 10meg 
L_L1       $N_0003 N2 1.90nH
G_Rvar1     $N_0001 $N_0003 LAPLACE { V($N_0001, $N_0003) } { 
+ 1/(k1*sqrt(S/(2*3.14159265))) } 
C_C            $N_0001 $N_0002 .036pF 
.ENDS

*0402CS-2N0 valid from 1-18100 MHz

.SUBCKT 0402CS-2N0  N1 N2
+ PARAMS: K1=8.70e-06
R_R1          $N_0002 N2 12 
R_R2        N1  $N_0001 0.002 
R_R3         N1 N2 10meg 
R_Rsim     0 $N_0003 10meg 
L_L1       $N_0003 N2 2.00nH
G_Rvar1     $N_0001 $N_0003 LAPLACE { V($N_0001, $N_0003) } { 
+ 1/(k1*sqrt(S/(2*3.14159265))) } 
C_C            $N_0001 $N_0002 .047pF 
.ENDS

*0402CS-2N2 valid from 1-17900 MHz

.SUBCKT 0402CS-2N2  N1 N2
+ PARAMS: K1=7.40e-06
R_R1          $N_0002 N2 12 
R_R2        N1  $N_0001 0.002 
R_R3         N1 N2 10meg 
R_Rsim     0 $N_0003 10meg 
L_L1       $N_0003 N2 2.20nH
G_Rvar1     $N_0001 $N_0003 LAPLACE { V($N_0001, $N_0003) } { 
+ 1/(k1*sqrt(S/(2*3.14159265))) } 
C_C            $N_0001 $N_0002 .044pF 
.ENDS

*0402CS-2N4 valid from 1-17900 MHz

.SUBCKT 0402CS-2N4  N1 N2
+ PARAMS: K1=1.28e-05
R_R1          $N_0002 N2 13 
R_R2        N1  $N_0001 0.003 
R_R3         N1 N2 10meg 
R_Rsim     0 $N_0003 10meg 
L_L1       $N_0003 N2 2.40nH
G_Rvar1     $N_0001 $N_0003 LAPLACE { V($N_0001, $N_0003) } { 
+ 1/(k1*sqrt(S/(2*3.14159265))) } 
C_C            $N_0001 $N_0002 .038pF 
.ENDS

*0402CS-2N7 valid from 1-17900 MHz

.SUBCKT 0402CS-2N7  N1 N2
+ PARAMS: K1=1.38e-05
R_R1          $N_0002 N2 13 
R_R2        N1  $N_0001 0.003 
R_R3         N1 N2 10meg 
R_Rsim     0 $N_0003 10meg 
L_L1       $N_0003 N2 2.70nH
G_Rvar1     $N_0001 $N_0003 LAPLACE { V($N_0001, $N_0003) } { 
+ 1/(k1*sqrt(S/(2*3.14159265))) } 
C_C            $N_0001 $N_0002 .036pF 
.ENDS

*0402CS-3N3 valid from 1-14800 MHz

.SUBCKT 0402CS-3N3  N1 N2
+ PARAMS: K1=1.21e-05
R_R1          $N_0002 N2 14 
R_R2        N1  $N_0001 0.003 
R_R3         N1 N2 10meg 
R_Rsim     0 $N_0003 10meg 
L_L1       $N_0003 N2 3.30nH
G_Rvar1     $N_0001 $N_0003 LAPLACE { V($N_0001, $N_0003) } { 
+ 1/(k1*sqrt(S/(2*3.14159265))) } 
C_C            $N_0001 $N_0002 .043pF 
.ENDS

*0402CS-3N6 valid from 1-14700 MHz

.SUBCKT 0402CS-3N6  N1 N2
+ PARAMS: K1=1.28e-05
R_R1          $N_0002 N2 26 
R_R2        N1  $N_0001 0.003 
R_R3         N1 N2 10meg 
R_Rsim     0 $N_0003 10meg 
L_L1       $N_0003 N2 3.60nH
G_Rvar1     $N_0001 $N_0003 LAPLACE { V($N_0001, $N_0003) } { 
+ 1/(k1*sqrt(S/(2*3.14159265))) } 
C_C            $N_0001 $N_0002 .040pF 
.ENDS

*0402CS-3N9 valid from 1-14700 MHz

.SUBCKT 0402CS-3N9  N1 N2
+ PARAMS: K1=1.79e-05
R_R1          $N_0002 N2 26 
R_R2        N1  $N_0001 0.004 
R_R3         N1 N2 10meg 
R_Rsim     0 $N_0003 10meg 
L_L1       $N_0003 N2 3.90nH
G_Rvar1     $N_0001 $N_0003 LAPLACE { V($N_0001, $N_0003) } { 
+ 1/(k1*sqrt(S/(2*3.14159265))) } 
C_C            $N_0001 $N_0002 .037pF 
.ENDS

*0402CS-4N3 valid from 1-14700 MHz

.SUBCKT 0402CS-4N3  N1 N2
+ PARAMS: K1=1.76e-05
R_R1          $N_0002 N2 25 
R_R2        N1  $N_0001 0.004 
R_R3         N1 N2 10meg 
R_Rsim     0 $N_0003 10meg 
L_L1       $N_0003 N2 4.30nH
G_Rvar1     $N_0001 $N_0003 LAPLACE { V($N_0001, $N_0003) } { 
+ 1/(k1*sqrt(S/(2*3.14159265))) } 
C_C            $N_0001 $N_0002 .032pF 
.ENDS

*0402CS-4N7 valid from 1-14400 MHz

.SUBCKT 0402CS-4N7  N1 N2
+ PARAMS: K1=2.45e-05
R_R1          $N_0002 N2 25 
R_R2        N1  $N_0001 0.004 
R_R3         N1 N2 10meg 
R_Rsim     0 $N_0003 10meg 
L_L1       $N_0003 N2 4.70nH
G_Rvar1     $N_0001 $N_0003 LAPLACE { V($N_0001, $N_0003) } { 
+ 1/(k1*sqrt(S/(2*3.14159265))) } 
C_C            $N_0001 $N_0002 .032pF 
.ENDS

*0402CS-5N1 valid from 1-13200 MHz

.SUBCKT 0402CS-5N1  N1 N2
+ PARAMS: K1=1.81e-05
R_R1          $N_0002 N2 24 
R_R2        N1  $N_0001 0.004 
R_R3         N1 N2 10meg 
R_Rsim     0 $N_0003 10meg 
L_L1       $N_0003 N2 5.10nH
G_Rvar1     $N_0001 $N_0003 LAPLACE { V($N_0001, $N_0003) } { 
+ 1/(k1*sqrt(S/(2*3.14159265))) } 
C_C            $N_0001 $N_0002 .035pF 
.ENDS

*0402CS-5N6 valid from 1-11900 MHz

.SUBCKT 0402CS-5N6  N1 N2
+ PARAMS: K1=1.85e-05
R_R1          $N_0002 N2 20 
R_R2        N1  $N_0001 0.004 
R_R3         N1 N2 10meg 
R_Rsim     0 $N_0003 10meg 
L_L1       $N_0003 N2 5.60nH
G_Rvar1     $N_0001 $N_0003 LAPLACE { V($N_0001, $N_0003) } { 
+ 1/(k1*sqrt(S/(2*3.14159265))) } 
C_C            $N_0001 $N_0002 .039pF 
.ENDS

*0402CS-6N2 valid from 1-11000 MHz

.SUBCKT 0402CS-6N2  N1 N2
+ PARAMS: K1=2.23e-05
R_R1          $N_0002 N2 18 
R_R2        N1  $N_0001 0.005 
R_R3         N1 N2 10meg 
R_Rsim     0 $N_0003 10meg 
L_L1       $N_0003 N2 6.20nH
G_Rvar1     $N_0001 $N_0003 LAPLACE { V($N_0001, $N_0003) } { 
+ 1/(k1*sqrt(S/(2*3.14159265))) } 
C_C            $N_0001 $N_0002 .041pF 
.ENDS

*0402CS-6N8 valid from 1-10700 MHz

.SUBCKT 0402CS-6N8  N1 N2
+ PARAMS: K1=2.81e-05
R_R1          $N_0002 N2 18 
R_R2        N1  $N_0001 0.005 
R_R3         N1 N2 10meg 
R_Rsim     0 $N_0003 10meg 
L_L1       $N_0003 N2 6.80nH
G_Rvar1     $N_0001 $N_0003 LAPLACE { V($N_0001, $N_0003) } { 
+ 1/(k1*sqrt(S/(2*3.14159265))) } 
C_C            $N_0001 $N_0002 .048pF 
.ENDS

*0402CS-7N5 valid from 1-10700 MHz

.SUBCKT 0402CS-7N5  N1 N2
+ PARAMS: K1=2.68e-05
R_R1          $N_0002 N2 18 
R_R2        N1  $N_0001 0.005 
R_R3         N1 N2 10meg 
R_Rsim     0 $N_0003 10meg 
L_L1       $N_0003 N2 7.50nH
G_Rvar1     $N_0001 $N_0003 LAPLACE { V($N_0001, $N_0003) } { 
+ 1/(k1*sqrt(S/(2*3.14159265))) } 
C_C            $N_0001 $N_0002 .036pF 
.ENDS

*0402CS-8N2 valid from 1-9400 MHz

.SUBCKT 0402CS-8N2  N1 N2
+ PARAMS: K1=3.12e-05
R_R1          $N_0002 N2 16 
R_R2        N1  $N_0001 0.005 
R_R3         N1 N2 10meg 
R_Rsim     0 $N_0003 10meg 
L_L1       $N_0003 N2 8.20nH
G_Rvar1     $N_0001 $N_0003 LAPLACE { V($N_0001, $N_0003) } { 
+ 1/(k1*sqrt(S/(2*3.14159265))) } 
C_C            $N_0001 $N_0002 .043pF 
.ENDS

*0402CS-8N7 valid from 1-9900 MHz

.SUBCKT 0402CS-8N7  N1 N2
+ PARAMS: K1=3.90e-05
R_R1          $N_0002 N2 20 
R_R2        N1  $N_0001 0.005 
R_R3         N1 N2 10meg 
R_Rsim     0 $N_0003 10meg 
L_L1       $N_0003 N2 8.70nH
G_Rvar1     $N_0001 $N_0003 LAPLACE { V($N_0001, $N_0003) } { 
+ 1/(k1*sqrt(S/(2*3.14159265))) } 
C_C            $N_0001 $N_0002 .032pF 
.ENDS

*0402CS-9N0 valid from 1-8700 MHz

.SUBCKT 0402CS-9N0  N1 N2
+ PARAMS: K1=2.96e-05
R_R1          $N_0002 N2 25 
R_R2        N1  $N_0001 0.006 
R_R3         N1 N2 10meg 
R_Rsim     0 $N_0003 10meg 
L_L1       $N_0003 N2 9.00nH
G_Rvar1     $N_0001 $N_0003 LAPLACE { V($N_0001, $N_0003) } { 
+ 1/(k1*sqrt(S/(2*3.14159265))) } 
C_C            $N_0001 $N_0002 .046pF 
.ENDS

*0402CS-9N5 valid from 1-8600 MHz

.SUBCKT 0402CS-9N5  N1 N2
+ PARAMS: K1=4.26e-05
R_R1          $N_0002 N2 20 
R_R2        N1  $N_0001 0.006 
R_R3         N1 N2 10meg 
R_Rsim     0 $N_0003 10meg 
L_L1       $N_0003 N2 9.50nH
G_Rvar1     $N_0001 $N_0003 LAPLACE { V($N_0001, $N_0003) } { 
+ 1/(k1*sqrt(S/(2*3.14159265))) } 
C_C            $N_0001 $N_0002 .044pF 
.ENDS

*0402CS-10N valid from 1-8300 MHz

.SUBCKT 0402CS-10N  N1 N2
+ PARAMS: K1=3.88e-05
R_R1          $N_0002 N2 30 
R_R2        N1  $N_0001 0.006 
R_R3         N1 N2 10meg 
R_Rsim     0 $N_0003 10meg 
L_L1       $N_0003 N2 10.0nH
G_Rvar1     $N_0001 $N_0003 LAPLACE { V($N_0001, $N_0003) } { 
+ 1/(k1*sqrt(S/(2*3.14159265))) } 
C_C            $N_0001 $N_0002 .046pF 
.ENDS

*0402CS-11N valid from 1-8600 MHz

.SUBCKT 0402CS-11N  N1 N2
+ PARAMS: K1=3.63e-05
R_R1          $N_0002 N2 20 
R_R2        N1  $N_0001 0.008 
R_R3         N1 N2 10meg 
R_Rsim     0 $N_0003 10meg 
L_L1       $N_0003 N2 11.0nH
G_Rvar1     $N_0001 $N_0003 LAPLACE { V($N_0001, $N_0003) } { 
+ 1/(k1*sqrt(S/(2*3.14159265))) } 
C_C            $N_0001 $N_0002 .038pF 
.ENDS

*0402CS-12N valid from 1-7200 MHz

.SUBCKT 0402CS-12N  N1 N2
+ PARAMS: K1=3.93e-05
R_R1          $N_0002 N2 10 
R_R2        N1  $N_0001 0.008 
R_R3         N1 N2 10meg 
R_Rsim     0 $N_0003 10meg 
L_L1       $N_0003 N2 12.0nH
G_Rvar1     $N_0001 $N_0003 LAPLACE { V($N_0001, $N_0003) } { 
+ 1/(k1*sqrt(S/(2*3.14159265))) } 
C_C            $N_0001 $N_0002 .050pF 
.ENDS

*0402CS-13N valid from 1-7200 MHz

.SUBCKT 0402CS-13N  N1 N2
+ PARAMS: K1=4.38e-05
R_R1          $N_0002 N2 20 
R_R2        N1  $N_0001 0.009 
R_R3         N1 N2 10meg 
R_Rsim     0 $N_0003 10meg 
L_L1       $N_0003 N2 13.0nH
G_Rvar1     $N_0001 $N_0003 LAPLACE { V($N_0001, $N_0003) } { 
+ 1/(k1*sqrt(S/(2*3.14159265))) } 
C_C            $N_0001 $N_0002 .046pF 
.ENDS

*0402CS-15N valid from 1-7300 MHz

.SUBCKT 0402CS-15N  N1 N2
+ PARAMS: K1=4.73e-05
R_R1          $N_0002 N2 40 
R_R2        N1  $N_0001 0.010 
R_R3         N1 N2 10meg 
R_Rsim     0 $N_0003 10meg 
L_L1       $N_0003 N2 15.0nH
G_Rvar1     $N_0001 $N_0003 LAPLACE { V($N_0001, $N_0003) } { 
+ 1/(k1*sqrt(S/(2*3.14159265))) } 
C_C            $N_0001 $N_0002 .039pF 
.ENDS

*0402CS-16N valid from 1-7300 MHz

.SUBCKT 0402CS-16N  N1 N2
+ PARAMS: K1=5.50e-05
R_R1          $N_0002 N2 15 
R_R2        N1  $N_0001 0.010 
R_R3         N1 N2 10meg 
R_Rsim     0 $N_0003 10meg 
L_L1       $N_0003 N2 16.0nH
G_Rvar1     $N_0001 $N_0003 LAPLACE { V($N_0001, $N_0003) } { 
+ 1/(k1*sqrt(S/(2*3.14159265))) } 
C_C            $N_0001 $N_0002 .049pF 
.ENDS

*0402CS-18N valid from 1-7300 MHz

.SUBCKT 0402CS-18N  N1 N2
+ PARAMS: K1=6.31e-05
R_R1          $N_0002 N2 26 
R_R2        N1  $N_0001 0.010 
R_R3         N1 N2 10meg 
R_Rsim     0 $N_0003 10meg 
L_L1       $N_0003 N2 18.0nH
G_Rvar1     $N_0001 $N_0003 LAPLACE { V($N_0001, $N_0003) } { 
+ 1/(k1*sqrt(S/(2*3.14159265))) } 
C_C            $N_0001 $N_0002 .031pF 
.ENDS

*0402CS-19N valid from 1-6700 MHz

.SUBCKT 0402CS-19N  N1 N2
+ PARAMS: K1=5.71e-05
R_R1          $N_0002 N2 14 
R_R2        N1  $N_0001 0.010 
R_R3         N1 N2 10meg 
R_Rsim     0 $N_0003 10meg 
L_L1       $N_0003 N2 19.0nH
G_Rvar1     $N_0001 $N_0003 LAPLACE { V($N_0001, $N_0003) } { 
+ 1/(k1*sqrt(S/(2*3.14159265))) } 
C_C            $N_0001 $N_0002 .036pF 
.ENDS

*0402CS-20N valid from 1-6700 MHz

.SUBCKT 0402CS-20N  N1 N2
+ PARAMS: K1=7.01e-05
R_R1          $N_0002 N2 18 
R_R2        N1  $N_0001 0.010 
R_R3         N1 N2 10meg 
R_Rsim     0 $N_0003 10meg 
L_L1       $N_0003 N2 20.0nH
G_Rvar1     $N_0001 $N_0003 LAPLACE { V($N_0001, $N_0003) } { 
+ 1/(k1*sqrt(S/(2*3.14159265))) } 
C_C            $N_0001 $N_0002 .043pF 
.ENDS

*0402CS-22N valid from 1-6700 MHz

.SUBCKT 0402CS-22N  N1 N2
+ PARAMS: K1=7.81e-05
R_R1          $N_0002 N2 21 
R_R2        N1  $N_0001 0.011 
R_R3         N1 N2 10meg 
R_Rsim     0 $N_0003 10meg 
L_L1       $N_0003 N2 22.0nH
G_Rvar1     $N_0001 $N_0003 LAPLACE { V($N_0001, $N_0003) } { 
+ 1/(k1*sqrt(S/(2*3.14159265))) } 
C_C            $N_0001 $N_0002 .034pF 
.ENDS

*0402CS-23N valid from 1-6700 MHz

.SUBCKT 0402CS-23N  N1 N2
+ PARAMS: K1=7.47e-05
R_R1          $N_0002 N2 20 
R_R2        N1  $N_0001 0.012 
R_R3         N1 N2 10meg 
R_Rsim     0 $N_0003 10meg 
L_L1       $N_0003 N2 23.0nH
G_Rvar1     $N_0001 $N_0003 LAPLACE { V($N_0001, $N_0003) } { 
+ 1/(k1*sqrt(S/(2*3.14159265))) } 
C_C            $N_0001 $N_0002 .036pF 
.ENDS

*0402CS-24N valid from 1-6200 MHz

.SUBCKT 0402CS-24N  N1 N2
+ PARAMS: K1=8.51e-05
R_R1          $N_0002 N2 20 
R_R2        N1  $N_0001 0.012 
R_R3         N1 N2 10meg 
R_Rsim     0 $N_0003 10meg 
L_L1       $N_0003 N2 24.0nH
G_Rvar1     $N_0001 $N_0003 LAPLACE { V($N_0001, $N_0003) } { 
+ 1/(k1*sqrt(S/(2*3.14159265))) } 
C_C            $N_0001 $N_0002 .045pF 
.ENDS

*0402CS-27N valid from 1-6200 MHz

.SUBCKT 0402CS-27N  N1 N2
+ PARAMS: K1=8.75e-05
R_R1          $N_0002 N2 22 
R_R2        N1  $N_0001 0.012 
R_R3         N1 N2 10meg 
R_Rsim     0 $N_0003 10meg 
L_L1       $N_0003 N2 27.0nH
G_Rvar1     $N_0001 $N_0003 LAPLACE { V($N_0001, $N_0003) } { 
+ 1/(k1*sqrt(S/(2*3.14159265))) } 
C_C            $N_0001 $N_0002 .036pF 
.ENDS

*0402CS-30N valid from 1-5300 MHz

.SUBCKT 0402CS-30N  N1 N2
+ PARAMS: K1=1.02e-04
R_R1          $N_0002 N2 26 
R_R2        N1  $N_0001 0.013 
R_R3         N1 N2 10meg 
R_Rsim     0 $N_0003 10meg 
L_L1       $N_0003 N2 30.0nH
G_Rvar1     $N_0001 $N_0003 LAPLACE { V($N_0001, $N_0003) } { 
+ 1/(k1*sqrt(S/(2*3.14159265))) } 
C_C            $N_0001 $N_0002 .044pF 
.ENDS

*0402CS-33N valid from 1-5000 MHz

.SUBCKT 0402CS-33N  N1 N2
+ PARAMS: K1=1.16e-04
R_R1          $N_0002 N2 29 
R_R2        N1  $N_0001 0.013 
R_R3         N1 N2 10meg 
R_Rsim     0 $N_0003 10meg 
L_L1       $N_0003 N2 33.0nH
G_Rvar1     $N_0001 $N_0003 LAPLACE { V($N_0001, $N_0003) } { 
+ 1/(k1*sqrt(S/(2*3.14159265))) } 
C_C            $N_0001 $N_0002 .045pF 
.ENDS

*0402CS-36N valid from 1-5000 MHz

.SUBCKT 0402CS-36N  N1 N2
+ PARAMS: K1=1.28e-04
R_R1          $N_0002 N2 28 
R_R2        N1  $N_0001 0.014 
R_R3         N1 N2 10meg 
R_Rsim     0 $N_0003 10meg 
L_L1       $N_0003 N2 36.0nH
G_Rvar1     $N_0001 $N_0003 LAPLACE { V($N_0001, $N_0003) } { 
+ 1/(k1*sqrt(S/(2*3.14159265))) } 
C_C            $N_0001 $N_0002 .041pF 
.ENDS

*0402CS-39N valid from 1-5200 MHz

.SUBCKT 0402CS-39N  N1 N2
+ PARAMS: K1=1.29e-04
R_R1          $N_0002 N2 36 
R_R2        N1  $N_0001 0.014 
R_R3         N1 N2 10meg 
R_Rsim     0 $N_0003 10meg 
L_L1       $N_0003 N2 39.0nH
G_Rvar1     $N_0001 $N_0003 LAPLACE { V($N_0001, $N_0003) } { 
+ 1/(k1*sqrt(S/(2*3.14159265))) } 
C_C            $N_0001 $N_0002 .031pF 
.ENDS

*0402CS-40N valid from 1-4800 MHz

.SUBCKT 0402CS-40N  N1 N2
+ PARAMS: K1=1.30e-04
R_R1          $N_0002 N2 35 
R_R2        N1  $N_0001 0.014 
R_R3         N1 N2 10meg 
R_Rsim     0 $N_0003 10meg 
L_L1       $N_0003 N2 40.0nH
G_Rvar1     $N_0001 $N_0003 LAPLACE { V($N_0001, $N_0003) } { 
+ 1/(k1*sqrt(S/(2*3.14159265))) } 
C_C            $N_0001 $N_0002 .040pF 
.ENDS

*0402CS-43N valid from 1-5100 MHz

.SUBCKT 0402CS-43N  N1 N2
+ PARAMS: K1=1.43e-04
R_R1          $N_0002 N2 35 
R_R2        N1  $N_0001 0.015 
R_R3         N1 N2 10meg 
R_Rsim     0 $N_0003 10meg 
L_L1       $N_0003 N2 43.0nH
G_Rvar1     $N_0001 $N_0003 LAPLACE { V($N_0001, $N_0003) } { 
+ 1/(k1*sqrt(S/(2*3.14159265))) } 
C_C            $N_0001 $N_0002 .033pF 
.ENDS

*0402CS-47N valid from 1-4800 MHz

.SUBCKT 0402CS-47N  N1 N2
+ PARAMS: K1=1.40e-04
R_R1          $N_0002 N2 44 
R_R2        N1  $N_0001 0.016 
R_R3         N1 N2 10meg 
R_Rsim     0 $N_0003 10meg 
L_L1       $N_0003 N2 47.0nH
G_Rvar1     $N_0001 $N_0003 LAPLACE { V($N_0001, $N_0003) } { 
+ 1/(k1*sqrt(S/(2*3.14159265))) } 
C_C            $N_0001 $N_0002 .035pF 
.ENDS

*0402CS-51N valid from 1-4600 MHz

.SUBCKT 0402CS-51N  N1 N2
+ PARAMS: K1=1.79e-04
R_R1          $N_0002 N2 44 
R_R2        N1  $N_0001 0.017 
R_R3         N1 N2 10meg 
R_Rsim     0 $N_0003 10meg 
L_L1       $N_0003 N2 51.0nH
G_Rvar1     $N_0001 $N_0003 LAPLACE { V($N_0001, $N_0003) } { 
+ 1/(k1*sqrt(S/(2*3.14159265))) } 
C_C            $N_0001 $N_0002 .034pF 
.ENDS

*0402CS-56N valid from 1-4400 MHz

.SUBCKT 0402CS-56N  N1 N2
+ PARAMS: K1=2.16e-04
R_R1          $N_0002 N2 53 
R_R2        N1  $N_0001 0.018 
R_R3         N1 N2 10meg 
R_Rsim     0 $N_0003 10meg 
L_L1       $N_0003 N2 56.0nH
G_Rvar1     $N_0001 $N_0003 LAPLACE { V($N_0001, $N_0003) } { 
+ 1/(k1*sqrt(S/(2*3.14159265))) } 
C_C            $N_0001 $N_0002 .035pF 
.ENDS

*0402CS-68N valid from 1-4000 MHz

.SUBCKT 0402CS-68N  N1 N2
+ PARAMS: K1=2.67e-04
R_R1          $N_0002 N2 60 
R_R2        N1  $N_0001 0.020 
R_R3         N1 N2 10meg 
R_Rsim     0 $N_0003 10meg 
L_L1       $N_0003 N2 68.0nH
G_Rvar1     $N_0001 $N_0003 LAPLACE { V($N_0001, $N_0003) } { 
+ 1/(k1*sqrt(S/(2*3.14159265))) } 
C_C            $N_0001 $N_0002 .034pF 
.ENDS





*Coilcraft 0402PA Chip Inductor Series
*Netlist for spice models
*Updated 4/28/05


*0402PA-0N8 valid from 1-26000 MHz

.SUBCKT 0402PA-0N8  N1 N2
+ PARAMS: K1=2.18e-06
R_R1          $N_0002 N2 4.00 
R_R2        N1  $N_0001 0.061 
R_R3         N1 N2 10meg 
R_Rsim     0 $N_0003 10meg 
L_L1       $N_0003 N2 0.78nH
G_Rvar1     $N_0001 $N_0003 LAPLACE { V($N_0001, $N_0003) } { 
+ 1/(k1*sqrt(S/(2*3.14159265))) } 
C_C            $N_0001 $N_0002 .026pF 
.ENDS

*0402PA-1N9 valid from 1-20000 MHz

.SUBCKT 0402PA-1N9  N1 N2
+ PARAMS: K1=5.51e-06
R_R1          $N_0002 N2 4.86 
R_R2        N1  $N_0001 0.049 
R_R3         N1 N2 10meg 
R_Rsim     0 $N_0003 10meg 
L_L1       $N_0003 N2 1.90nH
G_Rvar1     $N_0001 $N_0003 LAPLACE { V($N_0001, $N_0003) } { 
+ 1/(k1*sqrt(S/(2*3.14159265))) } 
C_C            $N_0001 $N_0002 .037pF 
.ENDS

*0402PA-3N4 valid from 1-14000 MHz

.SUBCKT 0402PA-3N4  N1 N2
+ PARAMS: K1=1.58e-06
R_R1          $N_0002 N2 0.75 
R_R2        N1  $N_0001 0.330 
R_R3         N1 N2 10meg 
R_Rsim     0 $N_0003 10meg 
L_L1       $N_0003 N2 3.40nH
G_Rvar1     $N_0001 $N_0003 LAPLACE { V($N_0001, $N_0003) } { 
+ 1/(k1*sqrt(S/(2*3.14159265))) } 
C_C            $N_0001 $N_0002 .041pF 
.ENDS

*0402PA-3N5 valid from 1-15000 MHz

.SUBCKT 0402PA-3N5  N1 N2
+ PARAMS: K1=9.90e-06
R_R1          $N_0002 N2 1.17 
R_R2        N1  $N_0001 0.043 
R_R3         N1 N2 10meg 
R_Rsim     0 $N_0003 10meg 
L_L1       $N_0003 N2 3.50nH
G_Rvar1     $N_0001 $N_0003 LAPLACE { V($N_0001, $N_0003) } { 
+ 1/(k1*sqrt(S/(2*3.14159265))) } 
C_C            $N_0001 $N_0002 .038pF 
.ENDS

*0402PA-5N8 valid from 1-9000 MHz

.SUBCKT 0402PA-5N8  N1 N2
+ PARAMS: K1=1.20e-05
R_R1          $N_0002 N2 6.80 
R_R2        N1  $N_0001 0.222 
R_R3         N1 N2 10meg 
R_Rsim     0 $N_0003 10meg 
L_L1       $N_0003 N2 5.80nH
G_Rvar1     $N_0001 $N_0003 LAPLACE { V($N_0001, $N_0003) } { 
+ 1/(k1*sqrt(S/(2*3.14159265))) } 
C_C            $N_0001 $N_0002 .070pF 
.ENDS

*0402PA-6N2 valid from 1-9500 MHz

.SUBCKT 0402PA-6N2  N1 N2
+ PARAMS: K1=1.50e-05
R_R1          $N_0002 N2 11.3 
R_R2        N1  $N_0001 0.157 
R_R3         N1 N2 10meg 
R_Rsim     0 $N_0003 10meg 
L_L1       $N_0003 N2 2.60nH
G_Rvar1     $N_0001 $N_0003 LAPLACE { V($N_0001, $N_0003) } { 
+ 1/(k1*sqrt(S/(2*3.14159265))) } 
C_C            $N_0001 $N_0002 .056pF 
.ENDS

*0402PA-8N2 valid from 1-9000 MHz

.SUBCKT 0402PA-8N2  N1 N2
+ PARAMS: K1=1.58e-05
R_R1          $N_0002 N2 7.00 
R_R2        N1  $N_0001 0.313 
R_R3         N1 N2 10meg 
R_Rsim     0 $N_0003 10meg 
L_L1       $N_0003 N2 8.20nH
G_Rvar1     $N_0001 $N_0003 LAPLACE { V($N_0001, $N_0003) } { 
+ 1/(k1*sqrt(S/(2*3.14159265))) } 
C_C            $N_0001 $N_0002 .060pF 
.ENDS



*Coilcraft 0403HQ Chip Inductor Series
*Netlist for spice models
*Updated 4/28/05


*0403HQ-1N9 valid from 1-14000 MHz

.SUBCKT 0403HQ-1N9  N1 N2
+ PARAMS: K1=5.06e-06
R_R1          $N_0002 N2 1.96 
R_R2        N1  $N_0001 0.008 
R_R3         N1 N2 10meg 
R_Rsim     0 $N_0003 10meg 
L_L1       $N_0003 N2 1.90nH
G_Rvar1     $N_0001 $N_0003 LAPLACE { V($N_0001, $N_0003) } { 
+ 1/(k1*sqrt(S/(2*3.14159265))) } 
C_C            $N_0001 $N_0002 .095pF 
.ENDS

*0403HQ-2N1 valid from 1-14000 MHz

.SUBCKT 0403HQ-2N1  N1 N2
+ PARAMS: K1=6.46e-06
R_R1          $N_0002 N2 1.50 
R_R2        N1  $N_0001 0.008 
R_R3         N1 N2 10meg 
R_Rsim     0 $N_0003 10meg 
L_L1       $N_0003 N2 2.10nH
G_Rvar1     $N_0001 $N_0003 LAPLACE { V($N_0001, $N_0003) } { 
+ 1/(k1*sqrt(S/(2*3.14159265))) } 
C_C            $N_0001 $N_0002 .078pF 
.ENDS

*0403HQ-3N4 valid from 1-10000 MHz

.SUBCKT 0403HQ-3N4  N1 N2
+ PARAMS: K1=8.24e-06
R_R1          $N_0002 N2 6.00 
R_R2        N1  $N_0001 0.020 
R_R3         N1 N2 10meg 
R_Rsim     0 $N_0003 10meg 
L_L1       $N_0003 N2 3.40nH
G_Rvar1     $N_0001 $N_0003 LAPLACE { V($N_0001, $N_0003) } { 
+ 1/(k1*sqrt(S/(2*3.14159265))) } 
C_C            $N_0001 $N_0002 .080pF 
.ENDS

*0403HQ-3N7 valid from 1-10000 MHz

.SUBCKT 0403HQ-3N7  N1 N2
+ PARAMS: K1=9.54e-06
R_R1          $N_0002 N2 6.00 
R_R2        N1  $N_0001 0.010 
R_R3         N1 N2 10meg 
R_Rsim     0 $N_0003 10meg 
L_L1       $N_0003 N2 3.70nH
G_Rvar1     $N_0001 $N_0003 LAPLACE { V($N_0001, $N_0003) } { 
+ 1/(k1*sqrt(S/(2*3.14159265))) } 
C_C            $N_0001 $N_0002 .085pF 
.ENDS

*0403HQ-5N5 valid from 1-10000 MHz

.SUBCKT 0403HQ-5N5  N1 N2
+ PARAMS: K1=1.03e-05
R_R1          $N_0002 N2 12.16 
R_R2        N1  $N_0001 0.176 
R_R3         N1 N2 10meg 
R_Rsim     0 $N_0003 10meg 
L_L1       $N_0003 N2 5.50nH
G_Rvar1     $N_0001 $N_0003 LAPLACE { V($N_0001, $N_0003) } { 
+ 1/(k1*sqrt(S/(2*3.14159265))) } 
C_C            $N_0001 $N_0002 .062pF 
.ENDS

*0403HQ-6N6 valid from 1-9000 MHz

.SUBCKT 0403HQ-6N6  N1 N2
+ PARAMS: K1=1.31e-05
R_R1          $N_0002 N2 6.77 
R_R2        N1  $N_0001 0.176 
R_R3         N1 N2 10meg 
R_Rsim     0 $N_0003 10meg 
L_L1       $N_0003 N2 6.60nH
G_Rvar1     $N_0001 $N_0003 LAPLACE { V($N_0001, $N_0003) } { 
+ 1/(k1*sqrt(S/(2*3.14159265))) } 
C_C            $N_0001 $N_0002 .072pF 
.ENDS

*0403HQ-8N2 valid from 1-8000 MHz

.SUBCKT 0403HQ-8N2  N1 N2
+ PARAMS: K1=1.67e-05
R_R1          $N_0002 N2 7.11 
R_R2        N1  $N_0001 0.185 
R_R3         N1 N2 10meg 
R_Rsim     0 $N_0003 10meg 
L_L1       $N_0003 N2 8.20nH
G_Rvar1     $N_0001 $N_0003 LAPLACE { V($N_0001, $N_0003) } { 
+ 1/(k1*sqrt(S/(2*3.14159265))) } 
C_C            $N_0001 $N_0002 .068pF 
.ENDS

*0403HQ-9N0 valid from 1-8000 MHz

.SUBCKT 0403HQ-9N0  N1 N2
+ PARAMS: K1=1.91e-05
R_R1          $N_0002 N2 9.07 
R_R2        N1  $N_0001 0.176 
R_R3         N1 N2 10meg 
R_Rsim     0 $N_0003 10meg 
L_L1       $N_0003 N2 9.00nH
G_Rvar1     $N_0001 $N_0003 LAPLACE { V($N_0001, $N_0003) } { 
+ 1/(k1*sqrt(S/(2*3.14159265))) } 
C_C            $N_0001 $N_0002 .060pF 
.ENDS

*0403HQ-12N valid from 1-7000 MHz

.SUBCKT 0403HQ-12N  N1 N2
+ PARAMS: K1=1.99e-05
R_R1          $N_0002 N2 12.34 
R_R2        N1  $N_0001 0.350 
R_R3         N1 N2 10meg 
R_Rsim     0 $N_0003 10meg 
L_L1       $N_0003 N2 12.0nH
G_Rvar1     $N_0001 $N_0003 LAPLACE { V($N_0001, $N_0003) } { 
+ 1/(k1*sqrt(S/(2*3.14159265))) } 
C_C            $N_0001 $N_0002 .060pF 
.ENDS

*0403HQ-15N valid from 1-7000 MHz

.SUBCKT 0403HQ-15N  N1 N2
+ PARAMS: K1=3.15e-05
R_R1          $N_0002 N2 12.76 
R_R2        N1  $N_0001 0.273 
R_R3         N1 N2 10meg 
R_Rsim     0 $N_0003 10meg 
L_L1       $N_0003 N2 15.0nH
G_Rvar1     $N_0001 $N_0003 LAPLACE { V($N_0001, $N_0003) } { 
+ 1/(k1*sqrt(S/(2*3.14159265))) } 
C_C            $N_0001 $N_0002 .049pF 
.ENDS

*0403HQ-18N valid from 1-6000 MHz

.SUBCKT 0403HQ-18N  N1 N2
+ PARAMS: K1=3.83e-05
R_R1          $N_0002 N2 11.02 
R_R2        N1  $N_0001 0.273 
R_R3         N1 N2 10meg 
R_Rsim     0 $N_0003 10meg 
L_L1       $N_0003 N2 18.0nH
G_Rvar1     $N_0001 $N_0003 LAPLACE { V($N_0001, $N_0003) } { 
+ 1/(k1*sqrt(S/(2*3.14159265))) } 
C_C            $N_0001 $N_0002 .053pF 
.ENDS



*Coilcraft 0603CS Chip Inductor Series
*Netlist for spice models
*Updated 4/22/05


*0603CS-1N6 valid from 1-25300 MHz

.SUBCKT 0603CS-1N6  N1 N2
+ PARAMS: K1=6.50e-06
R_R1          $N_0002 N2 2 
R_R2        N1  $N_0001 0.001 
R_R3         N1 N2 10meg 
R_Rsim     0 $N_0003 10meg 
L_L1       $N_0003 N2 1.6nH
G_Rvar1     $N_0001 $N_0003 LAPLACE { V($N_0001, $N_0003) } { 
+ 1/(k1*sqrt(S/(2*3.14159265))) } 
C_C            $N_0001 $N_0002 .030pF 
.ENDS

*0603CS-1N8 valid from 1-22100 MHz

.SUBCKT 0603CS-1N8  N1 N2
+ PARAMS: K1=1.00e-05
R_R1          $N_0002 N2 2 
R_R2        N1  $N_0001 0.001 
R_R3         N1 N2 10meg 
R_Rsim     0 $N_0003 10meg 
L_L1       $N_0003 N2 1.8nH
G_Rvar1     $N_0001 $N_0003 LAPLACE { V($N_0001, $N_0003) } { 
+ 1/(k1*sqrt(S/(2*3.14159265))) } 
C_C            $N_0001 $N_0002 .035pF 
.ENDS

*0603CS-2N2 valid from 1-23000 MHz

.SUBCKT 0603CS-2N2  N1 N2
+ PARAMS: K1=1.12e-05
R_R1          $N_0002 N2 23 
R_R2        N1  $N_0001 0.070 
R_R3         N1 N2 10meg 
R_Rsim     0 $N_0003 10meg 
L_L1       $N_0003 N2 2.2nH
G_Rvar1     $N_0001 $N_0003 LAPLACE { V($N_0001, $N_0003) } { 
+ 1/(k1*sqrt(S/(2*3.14159265))) } 
C_C            $N_0001 $N_0002 .024pF 
.ENDS

*0603CS-3N3 valid from 1-17100 MHz

.SUBCKT 0603CS-3N3  N1 N2
+ PARAMS: K1=8.90e-06
R_R1          $N_0002 N2 12 
R_R2        N1  $N_0001 0.002 
R_R3         N1 N2 10meg 
R_Rsim     0 $N_0003 10meg 
L_L1       $N_0003 N2 3.3nH
G_Rvar1     $N_0001 $N_0003 LAPLACE { V($N_0001, $N_0003) } { 
+ 1/(k1*sqrt(S/(2*3.14159265))) } 
C_C            $N_0001 $N_0002 .032pF 
.ENDS

*0603CS-3N6 valid from 1-14600 MHz

.SUBCKT 0603CS-3N6  N1 N2
+ PARAMS: K1=1.25e-05
R_R1          $N_0002 N2 9 
R_R2        N1  $N_0001 0.002 
R_R3         N1 N2 10meg 
R_Rsim     0 $N_0003 10meg 
L_L1       $N_0003 N2 3.6nH
G_Rvar1     $N_0001 $N_0003 LAPLACE { V($N_0001, $N_0003) } { 
+ 1/(k1*sqrt(S/(2*3.14159265))) } 
C_C            $N_0001 $N_0002 .040pF 
.ENDS

*0603CS-3N9 valid from 1-13700 MHz

.SUBCKT 0603CS-3N9  N1 N2
+ PARAMS: K1=1.40e-05
R_R1          $N_0002 N2 9 
R_R2        N1  $N_0001 0.002 
R_R3         N1 N2 10meg 
R_Rsim     0 $N_0003 10meg 
L_L1       $N_0003 N2 3.9nH
G_Rvar1     $N_0001 $N_0003 LAPLACE { V($N_0001, $N_0003) } { 
+ 1/(k1*sqrt(S/(2*3.14159265))) } 
C_C            $N_0001 $N_0002 .042pF 
.ENDS

*0603CS-4N3 valid from 1-12900 MHz

.SUBCKT 0603CS-4N3  N1 N2
+ PARAMS: K1=1.31e-05
R_R1          $N_0002 N2 9 
R_R2        N1  $N_0001 0.003 
R_R3         N1 N2 10meg 
R_Rsim     0 $N_0003 10meg 
L_L1       $N_0003 N2 4.3nH
G_Rvar1     $N_0001 $N_0003 LAPLACE { V($N_0001, $N_0003) } { 
+ 1/(k1*sqrt(S/(2*3.14159265))) } 
C_C            $N_0001 $N_0002 .043pF 
.ENDS

*0603CS-4N7 valid from 1-12500 MHz

.SUBCKT 0603CS-4N7  N1 N2
+ PARAMS: K1=1.99e-05
R_R1          $N_0002 N2 10 
R_R2        N1  $N_0001 0.003 
R_R3         N1 N2 10meg 
R_Rsim     0 $N_0003 10meg 
L_L1       $N_0003 N2 4.7nH
G_Rvar1     $N_0001 $N_0003 LAPLACE { V($N_0001, $N_0003) } { 
+ 1/(k1*sqrt(S/(2*3.14159265))) } 
C_C            $N_0001 $N_0002 .042pF 
.ENDS

*0603CS-5N1 valid from 1-10700 MHz

.SUBCKT 0603CS-5N1  N1 N2
+ PARAMS: K1=2.08e-05
R_R1          $N_0002 N2 12 
R_R2        N1  $N_0001 0.004 
R_R3         N1 N2 10meg 
R_Rsim     0 $N_0003 10meg 
L_L1       $N_0003 N2 5.1nH
G_Rvar1     $N_0001 $N_0003 LAPLACE { V($N_0001, $N_0003) } { 
+ 1/(k1*sqrt(S/(2*3.14159265))) } 
C_C            $N_0001 $N_0002 .053pF 
.ENDS

*0603CS-5N6 valid from 1-10600 MHz

.SUBCKT 0603CS-5N6  N1 N2
+ PARAMS: K1=1.62e-05
R_R1          $N_0002 N2 5 
R_R2        N1  $N_0001 0.075 
R_R3         N1 N2 10meg 
R_Rsim     0 $N_0003 10meg 
L_L1       $N_0003 N2 5.6nH
G_Rvar1     $N_0001 $N_0003 LAPLACE { V($N_0001, $N_0003) } { 
+ 1/(k1*sqrt(S/(2*3.14159265))) } 
C_C            $N_0001 $N_0002 .029pF 
.ENDS

*0603CS-6N8 valid from 1-10500 MHz

.SUBCKT 0603CS-6N8  N1 N2
+ PARAMS: K1=1.89e-05
R_R1          $N_0002 N2 11 
R_R2        N1  $N_0001 0.005 
R_R3         N1 N2 10meg 
R_Rsim     0 $N_0003 10meg 
L_L1       $N_0003 N2 6.8nH
G_Rvar1     $N_0001 $N_0003 LAPLACE { V($N_0001, $N_0003) } { 
+ 1/(k1*sqrt(S/(2*3.14159265))) } 
C_C            $N_0001 $N_0002 .041pF 
.ENDS

*0603CS-7N5 valid from 1-9600 MHz

.SUBCKT 0603CS-7N5  N1 N2
+ PARAMS: K1=2.04e-05
R_R1          $N_0002 N2 12 
R_R2        N1  $N_0001 0.006 
R_R3         N1 N2 10meg 
R_Rsim     0 $N_0003 10meg 
L_L1       $N_0003 N2 7.5nH
G_Rvar1     $N_0001 $N_0003 LAPLACE { V($N_0001, $N_0003) } { 
+ 1/(k1*sqrt(S/(2*3.14159265))) } 
C_C            $N_0001 $N_0002 .045pF 
.ENDS

*0603CS-8N2 valid from 1-8100 MHz

.SUBCKT 0603CS-8N2  N1 N2
+ PARAMS: K1=2.18e-05
R_R1          $N_0002 N2 16 
R_R2        N1  $N_0001 0.008 
R_R3         N1 N2 10meg 
R_Rsim     0 $N_0003 10meg 
L_L1       $N_0003 N2 8.0nH
G_Rvar1     $N_0001 $N_0003 LAPLACE { V($N_0001, $N_0003) } { 
+ 1/(k1*sqrt(S/(2*3.14159265))) } 
C_C            $N_0001 $N_0002 .059pF 
.ENDS

*0603CS-8N7 valid from 1-7200 MHz

.SUBCKT 0603CS-8N7  N1 N2
+ PARAMS: K1=2.40e-05
R_R1          $N_0002 N2 5 
R_R2        N1  $N_0001 0.011 
R_R3         N1 N2 10meg 
R_Rsim     0 $N_0003 10meg 
L_L1       $N_0003 N2 8.7nH
G_Rvar1     $N_0001 $N_0003 LAPLACE { V($N_0001, $N_0003) } { 
+ 1/(k1*sqrt(S/(2*3.14159265))) } 
C_C            $N_0001 $N_0002 .069pF 
.ENDS

*0603CS-9N5 valid from 1-9300 MHz

.SUBCKT 0603CS-9N5  N1 N2
+ PARAMS: K1=2.96e-05
R_R1          $N_0002 N2 10 
R_R2        N1  $N_0001 0.011 
R_R3         N1 N2 10meg 
R_Rsim     0 $N_0003 10meg 
L_L1       $N_0003 N2 9.5nH
G_Rvar1     $N_0001 $N_0003 LAPLACE { V($N_0001, $N_0003) } { 
+ 1/(k1*sqrt(S/(2*3.14159265))) } 
C_C            $N_0001 $N_0002 .038pF 
.ENDS

*0603CS-10N valid from 1-8500 MHz

.SUBCKT 0603CS-10N  N1 N2
+ PARAMS: K1=2.64e-05
R_R1          $N_0002 N2 35 
R_R2        N1  $N_0001 0.010 
R_R3         N1 N2 10meg 
R_Rsim     0 $N_0003 10meg 
L_L1       $N_0003 N2 10.0nH
G_Rvar1     $N_0001 $N_0003 LAPLACE { V($N_0001, $N_0003) } { 
+ 1/(k1*sqrt(S/(2*3.14159265))) } 
C_C            $N_0001 $N_0002 .043pF 
.ENDS

*0603CS-11N valid from 1-7800 MHz

.SUBCKT 0603CS-11N  N1 N2
+ PARAMS: K1=2.88e-05
R_R1          $N_0002 N2 25 
R_R2        N1  $N_0001 0.013 
R_R3         N1 N2 10meg 
R_Rsim     0 $N_0003 10meg 
L_L1       $N_0003 N2 11.0nH
G_Rvar1     $N_0001 $N_0003 LAPLACE { V($N_0001, $N_0003) } { 
+ 1/(k1*sqrt(S/(2*3.14159265))) } 
C_C            $N_0001 $N_0002 .046pF 
.ENDS

*0603CS-12N valid from 1-6700 MHz
