Version 4.1
SHEET 1 1432 740
WIRE 224 80 144 80
WIRE 320 80 224 80
WIRE 416 80 320 80
WIRE 528 80 416 80
WIRE 816 80 688 80
WIRE 944 80 816 80
WIRE 1040 80 944 80
WIRE 1136 80 1040 80
WIRE 224 112 224 80
WIRE -224 128 -288 128
WIRE -176 128 -224 128
WIRE 320 128 320 80
WIRE 416 128 416 80
WIRE 944 128 944 80
WIRE 1040 128 1040 80
WIRE 144 144 -48 144
WIRE -288 192 -288 128
WIRE -96 192 -96 128
WIRE -48 192 -48 144
WIRE 608 208 608 176
WIRE 816 208 816 160
WIRE 816 208 608 208
WIRE 816 224 816 208
WIRE -288 304 -288 272
WIRE -256 304 -288 304
WIRE -96 304 -96 272
WIRE -96 304 -256 304
WIRE -48 336 -48 272
WIRE 0 336 -48 336
WIRE 0 352 0 336
WIRE 320 368 320 192
WIRE 320 368 272 368
WIRE 416 368 416 192
WIRE 416 368 320 368
WIRE 816 368 816 304
WIRE 816 368 416 368
WIRE 944 368 944 192
WIRE 944 368 816 368
WIRE 1040 368 1040 192
WIRE 1040 368 944 368
WIRE 1136 368 1040 368
WIRE -224 384 -224 128
WIRE -208 384 -224 384
WIRE -48 384 -48 336
WIRE -48 384 -80 384
WIRE 272 384 272 368
WIRE 816 432 816 368
WIRE -128 448 -128 384
WIRE -80 448 -80 384
WIRE 144 448 144 144
WIRE 816 528 816 512
WIRE 816 528 608 528
WIRE 320 544 320 368
WIRE 416 544 416 368
WIRE 944 544 944 368
WIRE 1040 544 1040 368
WIRE -256 560 -256 304
WIRE -128 560 -128 528
WIRE -128 560 -256 560
WIRE -80 560 -80 528
WIRE 224 560 224 176
WIRE 224 560 -80 560
WIRE 608 560 608 528
WIRE 816 576 816 528
WIRE 144 656 144 512
WIRE 224 656 224 624
WIRE 224 656 144 656
WIRE 320 656 320 608
WIRE 320 656 224 656
WIRE 416 656 416 608
WIRE 416 656 320 656
WIRE 528 656 464 656
WIRE 752 656 688 656
WIRE 816 656 784 656
WIRE 944 656 944 608
WIRE 944 656 816 656
WIRE 1040 656 1040 608
WIRE 1040 656 944 656
WIRE 1136 656 1040 656
WIRE 464 704 464 656
WIRE 784 704 784 656
WIRE 784 704 464 704
WIRE 416 736 416 656
WIRE 752 736 752 656
WIRE 752 736 416 736
FLAG 1136 656 Vout-
IOPIN 1136 656 Out
FLAG 1136 80 Vout+
IOPIN 1136 80 Out
FLAG 0 352 GND
IOPIN 0 352 BiDir
FLAG 272 384 GND
IOPIN 272 384 BiDir
SYMBOL voltage -288 176 R0
WINDOW 123 0 0 Left 0
WINDOW 39 0 0 Left 0
WINDOW 3 -265 104 Left 2
SYMATTR Value SINE(0 230 50 0 0 0 1e6)
SYMATTR InstName V1
SYMBOL res -80 112 R90
WINDOW 0 0 56 VBottom 2
WINDOW 3 32 56 VTop 2
SYMATTR InstName R1
SYMATTR Value 1
SYMBOL res -112 368 R90
WINDOW 0 0 56 VBottom 2
WINDOW 3 32 56 VTop 2
SYMATTR InstName R2
SYMATTR Value 1
SYMBOL LM317 608 112 R0
WINDOW 3 -47 6 Left 3
SYMATTR InstName U1
SYMBOL LM337 608 624 R180
SYMATTR InstName U2
SYMBOL diode 160 144 R180
WINDOW 0 24 64 Left 2
WINDOW 3 54 34 Left 2
SYMATTR InstName D1
SYMATTR Value 1N4148
SYMBOL diode 240 176 R180
WINDOW 0 24 64 Left 2
WINDOW 3 24 0 Left 2
SYMATTR InstName D2
SYMATTR Value 1N4148
SYMBOL diode 160 512 R180
WINDOW 0 24 64 Left 2
WINDOW 3 24 0 Left 2
SYMATTR InstName D3
SYMATTR Value 1N4148
SYMBOL diode 240 624 R180
WINDOW 0 24 64 Left 2
WINDOW 3 24 0 Left 2
SYMATTR InstName D4
SYMATTR Value 1N4148
SYMBOL cap 304 128 R0
SYMATTR InstName C1
SYMATTR Value 600µ
SYMBOL cap 400 128 R0
SYMATTR InstName C2
SYMATTR Value 100n
SYMBOL cap 304 544 R0
SYMATTR InstName C3
SYMATTR Value 600µ
SYMBOL cap 400 544 R0
WINDOW 3 23 56 Left 2
SYMATTR Value 100n
SYMATTR InstName C4
SYMBOL cap 1024 128 R0
SYMATTR InstName C6
SYMATTR Value 1000µ
SYMBOL cap 928 544 R0
SYMATTR InstName C7
SYMATTR Value 100n
SYMBOL cap 1024 544 R0
SYMATTR InstName C8
SYMATTR Value 1000µ
SYMBOL res 800 64 R0
SYMATTR InstName R3
SYMATTR Value 470
SYMBOL res 800 208 R0
SYMATTR InstName R4
SYMATTR Value 4042
SYMBOL res 800 560 R0
SYMATTR InstName R5
SYMATTR Value 470
SYMBOL res 800 416 R0
SYMATTR InstName R6
SYMATTR Value 4042
SYMBOL cap 928 128 R0
SYMATTR InstName C5
SYMATTR Value 100n
SYMBOL ind2 -80 288 R180
WINDOW 0 36 80 Left 2
WINDOW 3 35 41 Left 2
SYMATTR InstName L1
SYMATTR Value 3000
SYMATTR Type ind
SYMBOL ind2 -64 176 R0
SYMATTR InstName L2
SYMATTR Value 32
SYMATTR Type ind
SYMBOL ind2 -112 544 R180
WINDOW 0 36 80 Left 2
WINDOW 3 36 40 Left 2
SYMATTR InstName L3
SYMATTR Value 3000
SYMATTR Type ind
SYMBOL ind2 -96 432 R0
SYMATTR InstName L4
SYMATTR Value 32
SYMATTR Type ind
TEXT -384 624 Left 2 !.include nat_semi.lib
TEXT -384 656 Left 2 !.include tex_inst.lib
TEXT -120 64 Left 2 !K1 L1 L2 1
TEXT -128 584 Left 2 !K2 L3 L4 1
