Version 4.1
SHEET 1 944 724
WIRE 144 -64 144 -80
WIRE 544 -64 144 -64
WIRE 720 -64 544 -64
WIRE 144 16 144 -64
WIRE 144 128 144 96
WIRE 400 176 400 48
WIRE 144 240 144 208
WIRE 400 240 400 176
WIRE 480 240 400 240
WIRE 400 272 400 240
WIRE 544 272 544 -64
WIRE 480 288 480 240
WIRE 512 288 480 288
WIRE 768 304 576 304
WIRE 512 320 480 320
WIRE 144 368 144 320
WIRE 400 384 400 352
WIRE 480 384 480 320
WIRE 480 384 400 384
WIRE 400 416 400 384
WIRE 720 432 720 -64
WIRE 144 496 144 448
WIRE 544 544 544 336
WIRE 720 544 720 512
WIRE 720 544 544 544
WIRE 720 576 720 544
WIRE 720 704 720 656
FLAG 144 496 0
FLAG 144 -80 Vout
IOPIN 144 -80 Out
FLAG 400 176 Imaginary_Fuse
FLAG 720 704 0
FLAG 832 304 Vout
IOPIN 832 304 Out
SYMBOL voltage 144 0 R0
SYMATTR InstName V1
SYMATTR Value 3
SYMBOL voltage 144 112 R0
SYMATTR InstName V2
SYMATTR Value 3
SYMBOL voltage 144 224 R0
SYMATTR InstName V3
SYMATTR Value 3
SYMBOL voltage 144 352 R0
SYMATTR InstName V4
SYMATTR Value 3
SYMBOL res 384 256 R0
SYMATTR InstName R1
SYMBOL OpAmps\\opamp2 544 240 R0
SYMATTR InstName U1
SYMBOL res 704 416 R0
SYMATTR InstName R2
SYMBOL res 704 560 R0
SYMATTR InstName R3
SYMBOL zener 768 320 R270
WINDOW 0 36 32 VTop 2
WINDOW 3 -4 32 VBottom 2
SYMATTR InstName D1
TEXT -240 368 Left 2 !.include nat_semi.lib
TEXT -248 400 Left 2 !.include tex_inst.lib
